version 2
run Simple-0-20210128-22:58:51-4551
attr configname Simple
attr datetime 20210128-22:58:51
attr experiment Simple
attr inifile omnetpp.ini
attr iterationvars ""
attr iterationvarsf ""
attr measurement ""
attr network Simple_test
attr processid 4551
attr repetition 0
attr replication #0
attr resultdir results
attr runnumber 0
attr seedset 0
param *.n 4
param **.r1.numEthInterfaces 5
param **.cli*.numApps 1
param **.cli*.app[0].typename "\"UdpBasicApp\""
param **.cli*.app[0].localPort -1
param **.cli*.app[0].sendInterval 0.1s
param **.cli*.app[0].messageLength 10B
param **.cli*.app[0].stopTime 2500s
param **.srv*.numApps 1
param **.srv*.app[0].typename "\"UdpEchoApp\""
param **.srv*.app[0].localPort 1000
param **.srv*.app[0].sendInterval 0.1s
param **.eth[*].typename "\"EthernetInterfacePFC\""
param **.eth[*].mac.queue.typename "\"EtherQueuePFC\""
param **.cli[*].eth[*].mac.queue.is_host true
param **.srv.eth[*].mac.queue.is_host true
param **.r1.**.eth[*].mac.queue.is_host false
param **.mac.typename "\"EtherMacPFC\""
param **.mac.data_thres 25600
param **.mac.pause_time 1000
param **.cli*.app[0].destAddresses "\"srv\""
param **.cli*.app[0].destPort 1000
param **.crcMode "\"computed\""

scalar Simple_test.r1.lo[0].lo rcvdPkFromHl:count 0
attr interpolationmode none
attr source packetReceivedFromUpper
attr title "packets received from higher layer, count"
scalar Simple_test.r1.lo[0].lo rcvdPkFromHl:sum(packetBytes) 0
attr interpolationmode none
attr source packetReceivedFromUpper
attr title "packets received from higher layer, sum(packetBytes)"
scalar Simple_test.r1.lo[0].lo passedUpPk:count 0
attr interpolationmode none
attr source packetSentToUpper
attr title "packets passed to higher layer, count"
scalar Simple_test.r1.lo[0].lo passedUpPk:sum(packetBytes) 0
attr interpolationmode none
attr source packetSentToUpper
attr title "packets passed to higher layer, sum(packetBytes)"
scalar Simple_test.r1.eth[0].mac.queue packetPopped:count 210
attr interpolationmode none
attr title "packet popped, count"
scalar Simple_test.r1.eth[0].mac.queue packetPopped:sum(packetBytes) 13440
attr interpolationmode none
attr title "packet popped, sum(packetBytes)"
statistic Simple_test.r1.eth[0].mac.queue queueingTime:histogram
field count 210
field mean 0
field stddev 0
field min 0
field max 0
field sum 0
field sqrsum 0
attr interpolationmode none
attr source queueingTime(packetPopped)
attr title "queueing times, histogram"
attr unit s
bin	-inf	0
bin	-0.5	0
bin	-0.48	0
bin	-0.46	0
bin	-0.44	0
bin	-0.42	0
bin	-0.4	0
bin	-0.38	0
bin	-0.36	0
bin	-0.34	0
bin	-0.32	0
bin	-0.3	0
bin	-0.28	0
bin	-0.26	0
bin	-0.24	0
bin	-0.22	0
bin	-0.2	0
bin	-0.18	0
bin	-0.16	0
bin	-0.14	0
bin	-0.12	0
bin	-0.1	0
bin	-0.08	0
bin	-0.06	0
bin	-0.04	0
bin	-0.02	0
bin	0	210
bin	0.02	0
bin	0.04	0
bin	0.06	0
bin	0.08	0
bin	0.1	0
bin	0.12	0
bin	0.14	0
bin	0.16	0
bin	0.18	0
bin	0.2	0
bin	0.22	0
bin	0.24	0
bin	0.26	0
bin	0.28	0
bin	0.3	0
bin	0.32	0
bin	0.34	0
bin	0.36	0
bin	0.38	0
bin	0.4	0
bin	0.42	0
bin	0.44	0
bin	0.46	0
bin	0.48	0
bin	0.5	0
scalar Simple_test.r1.eth[0].mac.queue queueLength:max 1
attr interpolationmode sample-hold
attr source "count(packetPushed) - count(packetPopped) - count(packetRemoved) - count(packetDropped)"
attr title "queue length, max"
scalar Simple_test.r1.eth[0].mac.queue queueLength:timeavg 0
attr interpolationmode sample-hold
attr source "count(packetPushed) - count(packetPopped) - count(packetRemoved) - count(packetDropped)"
attr title "queue length, timeavg"
scalar Simple_test.r1.eth[0].mac.queue packetPushed:count 210
attr interpolationmode none
attr title "packet pushed, count"
scalar Simple_test.r1.eth[0].mac.queue packetPushed:sum(packetBytes) 13440
attr interpolationmode none
attr title "packet pushed, sum(packetBytes)"
scalar Simple_test.r1.eth[0].mac.queue packetDropQueueOverflow:count 0
attr interpolationmode none
attr source packetDropReasonIsQueueOverflow(packetDropped)
attr title "packet drops: queue overflow, count"
scalar Simple_test.r1.eth[0].mac.queue packetDropQueueOverflow:sum(packetBytes) 0
attr interpolationmode none
attr source packetDropReasonIsQueueOverflow(packetDropped)
attr title "packet drops: queue overflow, sum(packetBytes)"
scalar Simple_test.r1.eth[0].mac.queue packetRemoved:count 0
attr interpolationmode none
attr title "packets removed, count"
scalar Simple_test.r1.eth[0].mac.queue packetRemoved:sum(packetBytes) 0
attr interpolationmode none
attr title "packets removed, sum(packetBytes)"
scalar Simple_test.r1.eth[0].mac "simulated time" 20.9001922
scalar Simple_test.r1.eth[0].mac full-duplex 1
scalar Simple_test.r1.eth[0].mac "frames/sec sent" 9.9999080391232
scalar Simple_test.r1.eth[0].mac "frames/sec rcvd" 10.047754489071
scalar Simple_test.r1.eth[0].mac "bits/sec sent" 5119.9529160311
scalar Simple_test.r1.eth[0].mac "bits/sec rcvd" 5144.4502984044
scalar Simple_test.r1.eth[0].mac "rx channel idle (%)" 99.942124934143
scalar Simple_test.r1.eth[0].mac "rx channel utilization (%)" 0.05787506585705
scalar Simple_test.r1.eth[0].mac "rx channel collision (%)" 0
scalar Simple_test.r1.eth[0].mac collisions 0
scalar Simple_test.r1.eth[0].mac backoffs 0
scalar Simple_test.r1.eth[0].mac rxPausePkUnits:count 0
attr interpolationmode none
attr title "pause units received, count"
scalar Simple_test.r1.eth[0].mac rxPausePkUnits:sum 0
attr interpolationmode none
attr title "pause units received, sum"
scalar Simple_test.r1.eth[0].mac txPausePkUnits:count 0
attr interpolationmode none
attr title "pause units sent, count"
scalar Simple_test.r1.eth[0].mac txPausePkUnits:sum 0
attr interpolationmode none
attr title "pause units sent, sum"
scalar Simple_test.r1.eth[0].mac rxPkOk:count 210
attr interpolationmode none
attr source rxPkOk
attr title "packets received OK, count"
scalar Simple_test.r1.eth[0].mac rxPkOk:sum(packetBytes) 13440
attr interpolationmode none
attr source rxPkOk
attr title "packets received OK, sum(packetBytes)"
scalar Simple_test.r1.eth[0].mac backoffSlotsGenerated:count 0
attr interpolationmode none
attr title "backoff, count"
scalar Simple_test.r1.eth[0].mac collision:count 0
attr interpolationmode none
attr title "collision, count"
scalar Simple_test.r1.eth[0].mac txPk:count 209
attr interpolationmode none
attr source packetSentToLower
attr title "packets transmitted, count"
scalar Simple_test.r1.eth[0].mac txPk:sum(packetBytes) 13376
attr interpolationmode none
attr source packetSentToLower
attr title "packets transmitted, sum(packetBytes)"
scalar Simple_test.r1.eth[0].mac packetReceivedFromUpper:count 210
attr interpolationmode none
attr source packetReceivedFromUpper
attr title "packet bytes from higher layer, count"
scalar Simple_test.r1.eth[0].mac packetReceivedFromUpper:sum(packetBytes) 11750
attr interpolationmode none
attr source packetReceivedFromUpper
attr title "packet bytes from higher layer, sum(packetBytes)"
scalar Simple_test.r1.eth[0].mac passedUpPk:count 210
attr interpolationmode none
attr source packetSentToUpper
attr title "packets passed to higher layer, count"
scalar Simple_test.r1.eth[0].mac passedUpPk:sum(packetBytes) 13440
attr interpolationmode none
attr source packetSentToUpper
attr title "packets passed to higher layer, sum(packetBytes)"
scalar Simple_test.r1.eth[0].mac packetDropIncorrectlyReceived:count 0
attr interpolationmode none
attr source packetDropReasonIsIncorrectlyReceived(packetDropped)
attr title "packet drop: incorrectly received, count"
scalar Simple_test.r1.eth[0].mac packetDropIncorrectlyReceived:sum(packetBytes) 0
attr interpolationmode none
attr source packetDropReasonIsIncorrectlyReceived(packetDropped)
attr title "packet drop: incorrectly received, sum(packetBytes)"
scalar Simple_test.r1.eth[0].mac packetDropInterfaceDown:count 0
attr interpolationmode none
attr source packetDropReasonIsInterfaceDown(packetDropped)
attr title "packet drop: interface down, count"
scalar Simple_test.r1.eth[0].mac packetDropInterfaceDown:sum(packetBytes) 0
attr interpolationmode none
attr source packetDropReasonIsInterfaceDown(packetDropped)
attr title "packet drop: interface down, sum(packetBytes)"
scalar Simple_test.r1.eth[0].mac packetDropNotAddressedToUs:count 0
attr interpolationmode none
attr source packetDropReasonIsNotAddressedToUs(packetDropped)
attr title "packet drop: not addressed to us, count"
scalar Simple_test.r1.eth[0].mac packetDropNotAddressedToUs:sum(packetBytes) 0
attr interpolationmode none
attr source packetDropReasonIsNotAddressedToUs(packetDropped)
attr title "packet drop: not addressed to us, sum(packetBytes)"
scalar Simple_test.r1.eth[0].encap pauseSent:count 0
attr title "pause sent, count"
scalar Simple_test.r1.eth[0].encap pauseSent:sum 0
attr title "pause sent, sum"
scalar Simple_test.r1.eth[0].encap decapPk:count 210
attr interpolationmode none
attr source decapPk
attr title "packets decapsulated, count"
scalar Simple_test.r1.eth[0].encap decapPk:sum(packetBytes) 9660
attr interpolationmode none
attr source decapPk
attr title "packets decapsulated, sum(packetBytes)"
scalar Simple_test.r1.eth[0].encap encapPk:count 210
attr interpolationmode none
attr source encapPk
attr title "packets encapsulated, count"
scalar Simple_test.r1.eth[0].encap encapPk:sum(packetBytes) 7970
attr interpolationmode none
attr source encapPk
attr title "packets encapsulated, sum(packetBytes)"
scalar Simple_test.r1.eth[1].mac.queue packetPopped:count 209
attr interpolationmode none
attr title "packet popped, count"
scalar Simple_test.r1.eth[1].mac.queue packetPopped:sum(packetBytes) 13376
attr interpolationmode none
attr title "packet popped, sum(packetBytes)"
statistic Simple_test.r1.eth[1].mac.queue queueingTime:histogram
field count 209
field mean 0
field stddev 0
field min 0
field max 0
field sum 0
field sqrsum 0
attr interpolationmode none
attr source queueingTime(packetPopped)
attr title "queueing times, histogram"
attr unit s
bin	-inf	0
bin	-0.5	0
bin	-0.48	0
bin	-0.46	0
bin	-0.44	0
bin	-0.42	0
bin	-0.4	0
bin	-0.38	0
bin	-0.36	0
bin	-0.34	0
bin	-0.32	0
bin	-0.3	0
bin	-0.28	0
bin	-0.26	0
bin	-0.24	0
bin	-0.22	0
bin	-0.2	0
bin	-0.18	0
bin	-0.16	0
bin	-0.14	0
bin	-0.12	0
bin	-0.1	0
bin	-0.08	0
bin	-0.06	0
bin	-0.04	0
bin	-0.02	0
bin	0	209
bin	0.02	0
bin	0.04	0
bin	0.06	0
bin	0.08	0
bin	0.1	0
bin	0.12	0
bin	0.14	0
bin	0.16	0
bin	0.18	0
bin	0.2	0
bin	0.22	0
bin	0.24	0
bin	0.26	0
bin	0.28	0
bin	0.3	0
bin	0.32	0
bin	0.34	0
bin	0.36	0
bin	0.38	0
bin	0.4	0
bin	0.42	0
bin	0.44	0
bin	0.46	0
bin	0.48	0
bin	0.5	0
scalar Simple_test.r1.eth[1].mac.queue queueLength:max 1
attr interpolationmode sample-hold
attr source "count(packetPushed) - count(packetPopped) - count(packetRemoved) - count(packetDropped)"
attr title "queue length, max"
scalar Simple_test.r1.eth[1].mac.queue queueLength:timeavg 0
attr interpolationmode sample-hold
attr source "count(packetPushed) - count(packetPopped) - count(packetRemoved) - count(packetDropped)"
attr title "queue length, timeavg"
scalar Simple_test.r1.eth[1].mac.queue packetPushed:count 209
attr interpolationmode none
attr title "packet pushed, count"
scalar Simple_test.r1.eth[1].mac.queue packetPushed:sum(packetBytes) 13376
attr interpolationmode none
attr title "packet pushed, sum(packetBytes)"
scalar Simple_test.r1.eth[1].mac.queue packetDropQueueOverflow:count 0
attr interpolationmode none
attr source packetDropReasonIsQueueOverflow(packetDropped)
attr title "packet drops: queue overflow, count"
scalar Simple_test.r1.eth[1].mac.queue packetDropQueueOverflow:sum(packetBytes) 0
attr interpolationmode none
attr source packetDropReasonIsQueueOverflow(packetDropped)
attr title "packet drops: queue overflow, sum(packetBytes)"
scalar Simple_test.r1.eth[1].mac.queue packetRemoved:count 0
attr interpolationmode none
attr title "packets removed, count"
scalar Simple_test.r1.eth[1].mac.queue packetRemoved:sum(packetBytes) 0
attr interpolationmode none
attr title "packets removed, sum(packetBytes)"
scalar Simple_test.r1.eth[1].mac "simulated time" 20.9001922
scalar Simple_test.r1.eth[1].mac full-duplex 1
scalar Simple_test.r1.eth[1].mac "frames/sec sent" 9.9999080391232
scalar Simple_test.r1.eth[1].mac "frames/sec rcvd" 10.047754489071
scalar Simple_test.r1.eth[1].mac "bits/sec sent" 5119.9529160311
scalar Simple_test.r1.eth[1].mac "bits/sec rcvd" 5144.4502984044
scalar Simple_test.r1.eth[1].mac "rx channel idle (%)" 99.942124934143
scalar Simple_test.r1.eth[1].mac "rx channel utilization (%)" 0.05787506585705
scalar Simple_test.r1.eth[1].mac "rx channel collision (%)" 0
scalar Simple_test.r1.eth[1].mac collisions 0
scalar Simple_test.r1.eth[1].mac backoffs 0
scalar Simple_test.r1.eth[1].mac rxPausePkUnits:count 0
attr interpolationmode none
attr title "pause units received, count"
scalar Simple_test.r1.eth[1].mac rxPausePkUnits:sum 0
attr interpolationmode none
attr title "pause units received, sum"
scalar Simple_test.r1.eth[1].mac txPausePkUnits:count 0
attr interpolationmode none
attr title "pause units sent, count"
scalar Simple_test.r1.eth[1].mac txPausePkUnits:sum 0
attr interpolationmode none
attr title "pause units sent, sum"
scalar Simple_test.r1.eth[1].mac rxPkOk:count 210
attr interpolationmode none
attr source rxPkOk
attr title "packets received OK, count"
scalar Simple_test.r1.eth[1].mac rxPkOk:sum(packetBytes) 13440
attr interpolationmode none
attr source rxPkOk
attr title "packets received OK, sum(packetBytes)"
scalar Simple_test.r1.eth[1].mac backoffSlotsGenerated:count 0
attr interpolationmode none
attr title "backoff, count"
scalar Simple_test.r1.eth[1].mac collision:count 0
attr interpolationmode none
attr title "collision, count"
scalar Simple_test.r1.eth[1].mac txPk:count 209
attr interpolationmode none
attr source packetSentToLower
attr title "packets transmitted, count"
scalar Simple_test.r1.eth[1].mac txPk:sum(packetBytes) 13376
attr interpolationmode none
attr source packetSentToLower
attr title "packets transmitted, sum(packetBytes)"
scalar Simple_test.r1.eth[1].mac packetReceivedFromUpper:count 209
attr interpolationmode none
attr source packetReceivedFromUpper
attr title "packet bytes from higher layer, count"
scalar Simple_test.r1.eth[1].mac packetReceivedFromUpper:sum(packetBytes) 11694
attr interpolationmode none
attr source packetReceivedFromUpper
attr title "packet bytes from higher layer, sum(packetBytes)"
scalar Simple_test.r1.eth[1].mac passedUpPk:count 210
attr interpolationmode none
attr source packetSentToUpper
attr title "packets passed to higher layer, count"
scalar Simple_test.r1.eth[1].mac passedUpPk:sum(packetBytes) 13440
attr interpolationmode none
attr source packetSentToUpper
attr title "packets passed to higher layer, sum(packetBytes)"
scalar Simple_test.r1.eth[1].mac packetDropIncorrectlyReceived:count 0
attr interpolationmode none
attr source packetDropReasonIsIncorrectlyReceived(packetDropped)
attr title "packet drop: incorrectly received, count"
scalar Simple_test.r1.eth[1].mac packetDropIncorrectlyReceived:sum(packetBytes) 0
attr interpolationmode none
attr source packetDropReasonIsIncorrectlyReceived(packetDropped)
attr title "packet drop: incorrectly received, sum(packetBytes)"
scalar Simple_test.r1.eth[1].mac packetDropInterfaceDown:count 0
attr interpolationmode none
attr source packetDropReasonIsInterfaceDown(packetDropped)
attr title "packet drop: interface down, count"
scalar Simple_test.r1.eth[1].mac packetDropInterfaceDown:sum(packetBytes) 0
attr interpolationmode none
attr source packetDropReasonIsInterfaceDown(packetDropped)
attr title "packet drop: interface down, sum(packetBytes)"
scalar Simple_test.r1.eth[1].mac packetDropNotAddressedToUs:count 0
attr interpolationmode none
attr source packetDropReasonIsNotAddressedToUs(packetDropped)
attr title "packet drop: not addressed to us, count"
scalar Simple_test.r1.eth[1].mac packetDropNotAddressedToUs:sum(packetBytes) 0
attr interpolationmode none
attr source packetDropReasonIsNotAddressedToUs(packetDropped)
attr title "packet drop: not addressed to us, sum(packetBytes)"
scalar Simple_test.r1.eth[1].encap pauseSent:count 0
attr title "pause sent, count"
scalar Simple_test.r1.eth[1].encap pauseSent:sum 0
attr title "pause sent, sum"
scalar Simple_test.r1.eth[1].encap decapPk:count 210
attr interpolationmode none
attr source decapPk
attr title "packets decapsulated, count"
scalar Simple_test.r1.eth[1].encap decapPk:sum(packetBytes) 9660
attr interpolationmode none
attr source decapPk
attr title "packets decapsulated, sum(packetBytes)"
scalar Simple_test.r1.eth[1].encap encapPk:count 209
attr interpolationmode none
attr source encapPk
attr title "packets encapsulated, count"
scalar Simple_test.r1.eth[1].encap encapPk:sum(packetBytes) 7932
attr interpolationmode none
attr source encapPk
attr title "packets encapsulated, sum(packetBytes)"
scalar Simple_test.r1.eth[2].mac.queue packetPopped:count 209
attr interpolationmode none
attr title "packet popped, count"
scalar Simple_test.r1.eth[2].mac.queue packetPopped:sum(packetBytes) 13376
attr interpolationmode none
attr title "packet popped, sum(packetBytes)"
statistic Simple_test.r1.eth[2].mac.queue queueingTime:histogram
field count 209
field mean 0
field stddev 0
field min 0
field max 0
field sum 0
field sqrsum 0
attr interpolationmode none
attr source queueingTime(packetPopped)
attr title "queueing times, histogram"
attr unit s
bin	-inf	0
bin	-0.5	0
bin	-0.48	0
bin	-0.46	0
bin	-0.44	0
bin	-0.42	0
bin	-0.4	0
bin	-0.38	0
bin	-0.36	0
bin	-0.34	0
bin	-0.32	0
bin	-0.3	0
bin	-0.28	0
bin	-0.26	0
bin	-0.24	0
bin	-0.22	0
bin	-0.2	0
bin	-0.18	0
bin	-0.16	0
bin	-0.14	0
bin	-0.12	0
bin	-0.1	0
bin	-0.08	0
bin	-0.06	0
bin	-0.04	0
bin	-0.02	0
bin	0	209
bin	0.02	0
bin	0.04	0
bin	0.06	0
bin	0.08	0
bin	0.1	0
bin	0.12	0
bin	0.14	0
bin	0.16	0
bin	0.18	0
bin	0.2	0
bin	0.22	0
bin	0.24	0
bin	0.26	0
bin	0.28	0
bin	0.3	0
bin	0.32	0
bin	0.34	0
bin	0.36	0
bin	0.38	0
bin	0.4	0
bin	0.42	0
bin	0.44	0
bin	0.46	0
bin	0.48	0
bin	0.5	0
scalar Simple_test.r1.eth[2].mac.queue queueLength:max 1
attr interpolationmode sample-hold
attr source "count(packetPushed) - count(packetPopped) - count(packetRemoved) - count(packetDropped)"
attr title "queue length, max"
scalar Simple_test.r1.eth[2].mac.queue queueLength:timeavg 0
attr interpolationmode sample-hold
attr source "count(packetPushed) - count(packetPopped) - count(packetRemoved) - count(packetDropped)"
attr title "queue length, timeavg"
scalar Simple_test.r1.eth[2].mac.queue packetPushed:count 209
attr interpolationmode none
attr title "packet pushed, count"
scalar Simple_test.r1.eth[2].mac.queue packetPushed:sum(packetBytes) 13376
attr interpolationmode none
attr title "packet pushed, sum(packetBytes)"
scalar Simple_test.r1.eth[2].mac.queue packetDropQueueOverflow:count 0
attr interpolationmode none
attr source packetDropReasonIsQueueOverflow(packetDropped)
attr title "packet drops: queue overflow, count"
scalar Simple_test.r1.eth[2].mac.queue packetDropQueueOverflow:sum(packetBytes) 0
attr interpolationmode none
attr source packetDropReasonIsQueueOverflow(packetDropped)
attr title "packet drops: queue overflow, sum(packetBytes)"
scalar Simple_test.r1.eth[2].mac.queue packetRemoved:count 0
attr interpolationmode none
attr title "packets removed, count"
scalar Simple_test.r1.eth[2].mac.queue packetRemoved:sum(packetBytes) 0
attr interpolationmode none
attr title "packets removed, sum(packetBytes)"
scalar Simple_test.r1.eth[2].mac "simulated time" 20.9001922
scalar Simple_test.r1.eth[2].mac full-duplex 1
scalar Simple_test.r1.eth[2].mac "frames/sec sent" 9.9999080391232
scalar Simple_test.r1.eth[2].mac "frames/sec rcvd" 10.047754489071
scalar Simple_test.r1.eth[2].mac "bits/sec sent" 5119.9529160311
scalar Simple_test.r1.eth[2].mac "bits/sec rcvd" 5144.4502984044
scalar Simple_test.r1.eth[2].mac "rx channel idle (%)" 99.942124934143
scalar Simple_test.r1.eth[2].mac "rx channel utilization (%)" 0.05787506585705
scalar Simple_test.r1.eth[2].mac "rx channel collision (%)" 0
scalar Simple_test.r1.eth[2].mac collisions 0
scalar Simple_test.r1.eth[2].mac backoffs 0
scalar Simple_test.r1.eth[2].mac rxPausePkUnits:count 0
attr interpolationmode none
attr title "pause units received, count"
scalar Simple_test.r1.eth[2].mac rxPausePkUnits:sum 0
attr interpolationmode none
attr title "pause units received, sum"
scalar Simple_test.r1.eth[2].mac txPausePkUnits:count 0
attr interpolationmode none
attr title "pause units sent, count"
scalar Simple_test.r1.eth[2].mac txPausePkUnits:sum 0
attr interpolationmode none
attr title "pause units sent, sum"
scalar Simple_test.r1.eth[2].mac rxPkOk:count 210
attr interpolationmode none
attr source rxPkOk
attr title "packets received OK, count"
scalar Simple_test.r1.eth[2].mac rxPkOk:sum(packetBytes) 13440
attr interpolationmode none
attr source rxPkOk
attr title "packets received OK, sum(packetBytes)"
scalar Simple_test.r1.eth[2].mac backoffSlotsGenerated:count 0
attr interpolationmode none
attr title "backoff, count"
scalar Simple_test.r1.eth[2].mac collision:count 0
attr interpolationmode none
attr title "collision, count"
scalar Simple_test.r1.eth[2].mac txPk:count 209
attr interpolationmode none
attr source packetSentToLower
attr title "packets transmitted, count"
scalar Simple_test.r1.eth[2].mac txPk:sum(packetBytes) 13376
attr interpolationmode none
attr source packetSentToLower
attr title "packets transmitted, sum(packetBytes)"
scalar Simple_test.r1.eth[2].mac packetReceivedFromUpper:count 209
attr interpolationmode none
attr source packetReceivedFromUpper
attr title "packet bytes from higher layer, count"
scalar Simple_test.r1.eth[2].mac packetReceivedFromUpper:sum(packetBytes) 11694
attr interpolationmode none
attr source packetReceivedFromUpper
attr title "packet bytes from higher layer, sum(packetBytes)"
scalar Simple_test.r1.eth[2].mac passedUpPk:count 210
attr interpolationmode none
attr source packetSentToUpper
attr title "packets passed to higher layer, count"
scalar Simple_test.r1.eth[2].mac passedUpPk:sum(packetBytes) 13440
attr interpolationmode none
attr source packetSentToUpper
attr title "packets passed to higher layer, sum(packetBytes)"
scalar Simple_test.r1.eth[2].mac packetDropIncorrectlyReceived:count 0
attr interpolationmode none
attr source packetDropReasonIsIncorrectlyReceived(packetDropped)
attr title "packet drop: incorrectly received, count"
scalar Simple_test.r1.eth[2].mac packetDropIncorrectlyReceived:sum(packetBytes) 0
attr interpolationmode none
attr source packetDropReasonIsIncorrectlyReceived(packetDropped)
attr title "packet drop: incorrectly received, sum(packetBytes)"
scalar Simple_test.r1.eth[2].mac packetDropInterfaceDown:count 0
attr interpolationmode none
attr source packetDropReasonIsInterfaceDown(packetDropped)
attr title "packet drop: interface down, count"
scalar Simple_test.r1.eth[2].mac packetDropInterfaceDown:sum(packetBytes) 0
attr interpolationmode none
attr source packetDropReasonIsInterfaceDown(packetDropped)
attr title "packet drop: interface down, sum(packetBytes)"
scalar Simple_test.r1.eth[2].mac packetDropNotAddressedToUs:count 0
attr interpolationmode none
attr source packetDropReasonIsNotAddressedToUs(packetDropped)
attr title "packet drop: not addressed to us, count"
scalar Simple_test.r1.eth[2].mac packetDropNotAddressedToUs:sum(packetBytes) 0
attr interpolationmode none
attr source packetDropReasonIsNotAddressedToUs(packetDropped)
attr title "packet drop: not addressed to us, sum(packetBytes)"
scalar Simple_test.r1.eth[2].encap pauseSent:count 0
attr title "pause sent, count"
scalar Simple_test.r1.eth[2].encap pauseSent:sum 0
attr title "pause sent, sum"
scalar Simple_test.r1.eth[2].encap decapPk:count 210
attr interpolationmode none
attr source decapPk
attr title "packets decapsulated, count"
scalar Simple_test.r1.eth[2].encap decapPk:sum(packetBytes) 9660
attr interpolationmode none
attr source decapPk
attr title "packets decapsulated, sum(packetBytes)"
scalar Simple_test.r1.eth[2].encap encapPk:count 209
attr interpolationmode none
attr source encapPk
attr title "packets encapsulated, count"
scalar Simple_test.r1.eth[2].encap encapPk:sum(packetBytes) 7932
attr interpolationmode none
attr source encapPk
attr title "packets encapsulated, sum(packetBytes)"
scalar Simple_test.r1.eth[3].mac.queue packetPopped:count 209
attr interpolationmode none
attr title "packet popped, count"
scalar Simple_test.r1.eth[3].mac.queue packetPopped:sum(packetBytes) 13376
attr interpolationmode none
attr title "packet popped, sum(packetBytes)"
statistic Simple_test.r1.eth[3].mac.queue queueingTime:histogram
field count 209
field mean 0
field stddev 0
field min 0
field max 0
field sum 0
field sqrsum 0
attr interpolationmode none
attr source queueingTime(packetPopped)
attr title "queueing times, histogram"
attr unit s
bin	-inf	0
bin	-0.5	0
bin	-0.48	0
bin	-0.46	0
bin	-0.44	0
bin	-0.42	0
bin	-0.4	0
bin	-0.38	0
bin	-0.36	0
bin	-0.34	0
bin	-0.32	0
bin	-0.3	0
bin	-0.28	0
bin	-0.26	0
bin	-0.24	0
bin	-0.22	0
bin	-0.2	0
bin	-0.18	0
bin	-0.16	0
bin	-0.14	0
bin	-0.12	0
bin	-0.1	0
bin	-0.08	0
bin	-0.06	0
bin	-0.04	0
bin	-0.02	0
bin	0	209
bin	0.02	0
bin	0.04	0
bin	0.06	0
bin	0.08	0
bin	0.1	0
bin	0.12	0
bin	0.14	0
bin	0.16	0
bin	0.18	0
bin	0.2	0
bin	0.22	0
bin	0.24	0
bin	0.26	0
bin	0.28	0
bin	0.3	0
bin	0.32	0
bin	0.34	0
bin	0.36	0
bin	0.38	0
bin	0.4	0
bin	0.42	0
bin	0.44	0
bin	0.46	0
bin	0.48	0
bin	0.5	0
scalar Simple_test.r1.eth[3].mac.queue queueLength:max 1
attr interpolationmode sample-hold
attr source "count(packetPushed) - count(packetPopped) - count(packetRemoved) - count(packetDropped)"
attr title "queue length, max"
scalar Simple_test.r1.eth[3].mac.queue queueLength:timeavg 0
attr interpolationmode sample-hold
attr source "count(packetPushed) - count(packetPopped) - count(packetRemoved) - count(packetDropped)"
attr title "queue length, timeavg"
scalar Simple_test.r1.eth[3].mac.queue packetPushed:count 209
attr interpolationmode none
attr title "packet pushed, count"
scalar Simple_test.r1.eth[3].mac.queue packetPushed:sum(packetBytes) 13376
attr interpolationmode none
attr title "packet pushed, sum(packetBytes)"
scalar Simple_test.r1.eth[3].mac.queue packetDropQueueOverflow:count 0
attr interpolationmode none
attr source packetDropReasonIsQueueOverflow(packetDropped)
attr title "packet drops: queue overflow, count"
scalar Simple_test.r1.eth[3].mac.queue packetDropQueueOverflow:sum(packetBytes) 0
attr interpolationmode none
attr source packetDropReasonIsQueueOverflow(packetDropped)
attr title "packet drops: queue overflow, sum(packetBytes)"
scalar Simple_test.r1.eth[3].mac.queue packetRemoved:count 0
attr interpolationmode none
attr title "packets removed, count"
scalar Simple_test.r1.eth[3].mac.queue packetRemoved:sum(packetBytes) 0
attr interpolationmode none
attr title "packets removed, sum(packetBytes)"
scalar Simple_test.r1.eth[3].mac "simulated time" 20.9001922
scalar Simple_test.r1.eth[3].mac full-duplex 1
scalar Simple_test.r1.eth[3].mac "frames/sec sent" 9.9999080391232
scalar Simple_test.r1.eth[3].mac "frames/sec rcvd" 10.047754489071
scalar Simple_test.r1.eth[3].mac "bits/sec sent" 5119.9529160311
scalar Simple_test.r1.eth[3].mac "bits/sec rcvd" 5144.4502984044
scalar Simple_test.r1.eth[3].mac "rx channel idle (%)" 99.942124934143
scalar Simple_test.r1.eth[3].mac "rx channel utilization (%)" 0.05787506585705
scalar Simple_test.r1.eth[3].mac "rx channel collision (%)" 0
scalar Simple_test.r1.eth[3].mac collisions 0
scalar Simple_test.r1.eth[3].mac backoffs 0
scalar Simple_test.r1.eth[3].mac rxPausePkUnits:count 0
attr interpolationmode none
attr title "pause units received, count"
scalar Simple_test.r1.eth[3].mac rxPausePkUnits:sum 0
attr interpolationmode none
attr title "pause units received, sum"
scalar Simple_test.r1.eth[3].mac txPausePkUnits:count 0
attr interpolationmode none
attr title "pause units sent, count"
scalar Simple_test.r1.eth[3].mac txPausePkUnits:sum 0
attr interpolationmode none
attr title "pause units sent, sum"
scalar Simple_test.r1.eth[3].mac rxPkOk:count 210
attr interpolationmode none
attr source rxPkOk
attr title "packets received OK, count"
scalar Simple_test.r1.eth[3].mac rxPkOk:sum(packetBytes) 13440
attr interpolationmode none
attr source rxPkOk
attr title "packets received OK, sum(packetBytes)"
scalar Simple_test.r1.eth[3].mac backoffSlotsGenerated:count 0
attr interpolationmode none
attr title "backoff, count"
scalar Simple_test.r1.eth[3].mac collision:count 0
attr interpolationmode none
attr title "collision, count"
scalar Simple_test.r1.eth[3].mac txPk:count 209
attr interpolationmode none
attr source packetSentToLower
attr title "packets transmitted, count"
scalar Simple_test.r1.eth[3].mac txPk:sum(packetBytes) 13376
attr interpolationmode none
attr source packetSentToLower
attr title "packets transmitted, sum(packetBytes)"
scalar Simple_test.r1.eth[3].mac packetReceivedFromUpper:count 209
attr interpolationmode none
attr source packetReceivedFromUpper
attr title "packet bytes from higher layer, count"
scalar Simple_test.r1.eth[3].mac packetReceivedFromUpper:sum(packetBytes) 11694
attr interpolationmode none
attr source packetReceivedFromUpper
attr title "packet bytes from higher layer, sum(packetBytes)"
scalar Simple_test.r1.eth[3].mac passedUpPk:count 210
attr interpolationmode none
attr source packetSentToUpper
attr title "packets passed to higher layer, count"
scalar Simple_test.r1.eth[3].mac passedUpPk:sum(packetBytes) 13440
attr interpolationmode none
attr source packetSentToUpper
attr title "packets passed to higher layer, sum(packetBytes)"
scalar Simple_test.r1.eth[3].mac packetDropIncorrectlyReceived:count 0
attr interpolationmode none
attr source packetDropReasonIsIncorrectlyReceived(packetDropped)
attr title "packet drop: incorrectly received, count"
scalar Simple_test.r1.eth[3].mac packetDropIncorrectlyReceived:sum(packetBytes) 0
attr interpolationmode none
attr source packetDropReasonIsIncorrectlyReceived(packetDropped)
attr title "packet drop: incorrectly received, sum(packetBytes)"
scalar Simple_test.r1.eth[3].mac packetDropInterfaceDown:count 0
attr interpolationmode none
attr source packetDropReasonIsInterfaceDown(packetDropped)
attr title "packet drop: interface down, count"
scalar Simple_test.r1.eth[3].mac packetDropInterfaceDown:sum(packetBytes) 0
attr interpolationmode none
attr source packetDropReasonIsInterfaceDown(packetDropped)
attr title "packet drop: interface down, sum(packetBytes)"
scalar Simple_test.r1.eth[3].mac packetDropNotAddressedToUs:count 0
attr interpolationmode none
attr source packetDropReasonIsNotAddressedToUs(packetDropped)
attr title "packet drop: not addressed to us, count"
scalar Simple_test.r1.eth[3].mac packetDropNotAddressedToUs:sum(packetBytes) 0
attr interpolationmode none
attr source packetDropReasonIsNotAddressedToUs(packetDropped)
attr title "packet drop: not addressed to us, sum(packetBytes)"
scalar Simple_test.r1.eth[3].encap pauseSent:count 0
attr title "pause sent, count"
scalar Simple_test.r1.eth[3].encap pauseSent:sum 0
attr title "pause sent, sum"
scalar Simple_test.r1.eth[3].encap decapPk:count 210
attr interpolationmode none
attr source decapPk
attr title "packets decapsulated, count"
scalar Simple_test.r1.eth[3].encap decapPk:sum(packetBytes) 9660
attr interpolationmode none
attr source decapPk
attr title "packets decapsulated, sum(packetBytes)"
scalar Simple_test.r1.eth[3].encap encapPk:count 209
attr interpolationmode none
attr source encapPk
attr title "packets encapsulated, count"
scalar Simple_test.r1.eth[3].encap encapPk:sum(packetBytes) 7932
attr interpolationmode none
attr source encapPk
attr title "packets encapsulated, sum(packetBytes)"
scalar Simple_test.r1.eth[4].mac.queue packetPopped:count 836
attr interpolationmode none
attr title "packet popped, count"
scalar Simple_test.r1.eth[4].mac.queue packetPopped:sum(packetBytes) 53504
attr interpolationmode none
attr title "packet popped, sum(packetBytes)"
statistic Simple_test.r1.eth[4].mac.queue queueingTime:histogram
field count 836
field mean 9.3404784688995e-05
field stddev 7.2012380679237e-05
field min 0
field max 0.0002016
field sum 0.0780864
field sqrsum 1.162377216e-05
attr interpolationmode none
attr source queueingTime(packetPopped)
attr title "queueing times, histogram"
attr unit s
bin	-inf	0
bin	0	210
bin	5e-06	0
bin	1e-05	0
bin	1.5e-05	0
bin	2e-05	0
bin	2.5e-05	0
bin	3e-05	0
bin	3.5e-05	0
bin	4e-05	0
bin	4.5e-05	0
bin	5e-05	0
bin	5.5e-05	208
bin	6e-05	0
bin	6.5e-05	1
bin	7e-05	0
bin	7.5e-05	0
bin	8e-05	0
bin	8.5e-05	0
bin	9e-05	0
bin	9.5e-05	0
bin	0.0001	0
bin	0.000105	0
bin	0.00011	0
bin	0.000115	0
bin	0.00012	208
bin	0.000125	0
bin	0.00013	1
bin	0.000135	0
bin	0.00014	0
bin	0.000145	0
bin	0.00015	0
bin	0.000155	0
bin	0.00016	0
bin	0.000165	0
bin	0.00017	0
bin	0.000175	0
bin	0.00018	0
bin	0.000185	0
bin	0.00019	207
bin	0.000195	0
bin	0.0002	1
bin	0.000205	0
bin	0.00021	0
bin	0.000215	0
bin	0.00022	0
bin	0.000225	0
bin	0.00023	0
bin	0.000235	0
bin	0.00024	0
bin	0.000245	0
bin	0.00025	0
bin	0.000255	0
scalar Simple_test.r1.eth[4].mac.queue queueLength:max 3
attr interpolationmode sample-hold
attr source "count(packetPushed) - count(packetPopped) - count(packetRemoved) - count(packetDropped)"
attr title "queue length, max"
scalar Simple_test.r1.eth[4].mac.queue queueLength:timeavg 0.0037606202103876
attr interpolationmode sample-hold
attr source "count(packetPushed) - count(packetPopped) - count(packetRemoved) - count(packetDropped)"
attr title "queue length, timeavg"
scalar Simple_test.r1.eth[4].mac.queue packetPushed:count 837
attr interpolationmode none
attr title "packet pushed, count"
scalar Simple_test.r1.eth[4].mac.queue packetPushed:sum(packetBytes) 53568
attr interpolationmode none
attr title "packet pushed, sum(packetBytes)"
scalar Simple_test.r1.eth[4].mac.queue packetDropQueueOverflow:count 0
attr interpolationmode none
attr source packetDropReasonIsQueueOverflow(packetDropped)
attr title "packet drops: queue overflow, count"
scalar Simple_test.r1.eth[4].mac.queue packetDropQueueOverflow:sum(packetBytes) 0
attr interpolationmode none
attr source packetDropReasonIsQueueOverflow(packetDropped)
attr title "packet drops: queue overflow, sum(packetBytes)"
scalar Simple_test.r1.eth[4].mac.queue packetRemoved:count 0
attr interpolationmode none
attr title "packets removed, count"
scalar Simple_test.r1.eth[4].mac.queue packetRemoved:sum(packetBytes) 0
attr interpolationmode none
attr title "packets removed, sum(packetBytes)"
scalar Simple_test.r1.eth[4].mac "simulated time" 20.9001922
scalar Simple_test.r1.eth[4].mac full-duplex 1
scalar Simple_test.r1.eth[4].mac "frames/sec sent" 39.951785706545
scalar Simple_test.r1.eth[4].mac "frames/sec rcvd" 39.903939256597
scalar Simple_test.r1.eth[4].mac "bits/sec sent" 20455.314281751
scalar Simple_test.r1.eth[4].mac "bits/sec rcvd" 20430.816899378
scalar Simple_test.r1.eth[4].mac "rx channel idle (%)" 99.770153309882
scalar Simple_test.r1.eth[4].mac "rx channel utilization (%)" 0.229846690118
scalar Simple_test.r1.eth[4].mac "rx channel collision (%)" 0
scalar Simple_test.r1.eth[4].mac collisions 0
scalar Simple_test.r1.eth[4].mac backoffs 0
scalar Simple_test.r1.eth[4].mac rxPausePkUnits:count 0
attr interpolationmode none
attr title "pause units received, count"
scalar Simple_test.r1.eth[4].mac rxPausePkUnits:sum 0
attr interpolationmode none
attr title "pause units received, sum"
scalar Simple_test.r1.eth[4].mac txPausePkUnits:count 0
attr interpolationmode none
attr title "pause units sent, count"
scalar Simple_test.r1.eth[4].mac txPausePkUnits:sum 0
attr interpolationmode none
attr title "pause units sent, sum"
scalar Simple_test.r1.eth[4].mac rxPkOk:count 834
attr interpolationmode none
attr source rxPkOk
attr title "packets received OK, count"
scalar Simple_test.r1.eth[4].mac rxPkOk:sum(packetBytes) 53376
attr interpolationmode none
attr source rxPkOk
attr title "packets received OK, sum(packetBytes)"
scalar Simple_test.r1.eth[4].mac backoffSlotsGenerated:count 0
attr interpolationmode none
attr title "backoff, count"
scalar Simple_test.r1.eth[4].mac collision:count 0
attr interpolationmode none
attr title "collision, count"
scalar Simple_test.r1.eth[4].mac txPk:count 835
attr interpolationmode none
attr source packetSentToLower
attr title "packets transmitted, count"
scalar Simple_test.r1.eth[4].mac txPk:sum(packetBytes) 53440
attr interpolationmode none
attr source packetSentToLower
attr title "packets transmitted, sum(packetBytes)"
scalar Simple_test.r1.eth[4].mac packetReceivedFromUpper:count 837
attr interpolationmode none
attr source packetReceivedFromUpper
attr title "packet bytes from higher layer, count"
scalar Simple_test.r1.eth[4].mac packetReceivedFromUpper:sum(packetBytes) 46862
attr interpolationmode none
attr source packetReceivedFromUpper
attr title "packet bytes from higher layer, sum(packetBytes)"
scalar Simple_test.r1.eth[4].mac passedUpPk:count 834
attr interpolationmode none
attr source packetSentToUpper
attr title "packets passed to higher layer, count"
scalar Simple_test.r1.eth[4].mac passedUpPk:sum(packetBytes) 53376
attr interpolationmode none
attr source packetSentToUpper
attr title "packets passed to higher layer, sum(packetBytes)"
scalar Simple_test.r1.eth[4].mac packetDropIncorrectlyReceived:count 0
attr interpolationmode none
attr source packetDropReasonIsIncorrectlyReceived(packetDropped)
attr title "packet drop: incorrectly received, count"
scalar Simple_test.r1.eth[4].mac packetDropIncorrectlyReceived:sum(packetBytes) 0
attr interpolationmode none
attr source packetDropReasonIsIncorrectlyReceived(packetDropped)
attr title "packet drop: incorrectly received, sum(packetBytes)"
scalar Simple_test.r1.eth[4].mac packetDropInterfaceDown:count 0
attr interpolationmode none
attr source packetDropReasonIsInterfaceDown(packetDropped)
attr title "packet drop: interface down, count"
scalar Simple_test.r1.eth[4].mac packetDropInterfaceDown:sum(packetBytes) 0
attr interpolationmode none
attr source packetDropReasonIsInterfaceDown(packetDropped)
attr title "packet drop: interface down, sum(packetBytes)"
scalar Simple_test.r1.eth[4].mac packetDropNotAddressedToUs:count 0
attr interpolationmode none
attr source packetDropReasonIsNotAddressedToUs(packetDropped)
attr title "packet drop: not addressed to us, count"
scalar Simple_test.r1.eth[4].mac packetDropNotAddressedToUs:sum(packetBytes) 0
attr interpolationmode none
attr source packetDropReasonIsNotAddressedToUs(packetDropped)
attr title "packet drop: not addressed to us, sum(packetBytes)"
scalar Simple_test.r1.eth[4].encap pauseSent:count 0
attr title "pause sent, count"
scalar Simple_test.r1.eth[4].encap pauseSent:sum 0
attr title "pause sent, sum"
scalar Simple_test.r1.eth[4].encap decapPk:count 834
attr interpolationmode none
attr source decapPk
attr title "packets decapsulated, count"
scalar Simple_test.r1.eth[4].encap decapPk:sum(packetBytes) 38364
attr interpolationmode none
attr source decapPk
attr title "packets decapsulated, sum(packetBytes)"
scalar Simple_test.r1.eth[4].encap encapPk:count 837
attr interpolationmode none
attr source encapPk
attr title "packets encapsulated, count"
scalar Simple_test.r1.eth[4].encap encapPk:sum(packetBytes) 31796
attr interpolationmode none
attr source encapPk
attr title "packets encapsulated, sum(packetBytes)"
scalar Simple_test.r1.ipv4.ip packetDropAddressResolutionFailed:count 0
attr interpolationmode none
attr source packetDropReasonIsAddressResolutionFailed(packetDropped)
attr title "packet drop: address resolution failed, count"
scalar Simple_test.r1.ipv4.ip packetDropAddressResolutionFailed:sum(packetBytes) 0
attr interpolationmode none
attr source packetDropReasonIsAddressResolutionFailed(packetDropped)
attr title "packet drop: address resolution failed, sum(packetBytes)"
scalar Simple_test.r1.ipv4.ip packetDropHopLimitReached:count 0
attr interpolationmode none
attr source packetDropReasonIsHopLimitReached(packetDropped)
attr title "packet drop: hop limit reached, count"
scalar Simple_test.r1.ipv4.ip packetDropHopLimitReached:sum(packetBytes) 0
attr interpolationmode none
attr source packetDropReasonIsHopLimitReached(packetDropped)
attr title "packet drop: hop limit reached, sum(packetBytes)"
scalar Simple_test.r1.ipv4.ip packetDropForwardingDisabled:count 0
attr interpolationmode none
attr source packetDropReasonIsForwardingDisabled(packetDropped)
attr title "packet drop: forwarding disabled, count"
scalar Simple_test.r1.ipv4.ip packetDropForwardingDisabled:sum(packetBytes) 0
attr interpolationmode none
attr source packetDropReasonIsForwardingDisabled(packetDropped)
attr title "packet drop: forwarding disabled, sum(packetBytes)"
scalar Simple_test.r1.ipv4.ip packetDropNoInterfaceFound:count 0
attr interpolationmode none
attr source packetDropReasonIsNoInterfaceFound(packetDropped)
attr title "packet drop: no interface found, count"
scalar Simple_test.r1.ipv4.ip packetDropNoInterfaceFound:sum(packetBytes) 0
attr interpolationmode none
attr source packetDropReasonIsNoInterfaceFound(packetDropped)
attr title "packet drop: no interface found, sum(packetBytes)"
scalar Simple_test.r1.ipv4.ip packetDropNoRouteFound:count 0
attr interpolationmode none
attr source packetDropReasonIsNoRouteFound(packetDropped)
attr title "packet drop: no route found, count"
scalar Simple_test.r1.ipv4.ip packetDropNoRouteFound:sum(packetBytes) 0
attr interpolationmode none
attr source packetDropReasonIsNoRouteFound(packetDropped)
attr title "packet drop: no route found, sum(packetBytes)"
scalar Simple_test.r1.ipv4.ip packetDropUndefined:count 0
attr interpolationmode none
attr source packetDropReasonIsUndefined(packetDropped)
attr title "packet drop: undefined, count"
scalar Simple_test.r1.ipv4.ip packetDropUndefined:sum(packetBytes) 0
attr interpolationmode none
attr source packetDropReasonIsUndefined(packetDropped)
attr title "packet drop: undefined, sum(packetBytes)"
scalar Simple_test.r1.ipv4.arp arpResolutionFailed:count 0
attr title "ARP failed resolutions, count"
scalar Simple_test.r1.ipv4.arp arpResolutionCompleted:count 5
attr title "ARP completed resolutions, count"
scalar Simple_test.r1.ipv4.arp arpResolutionInitiated:count 1
attr title "ARP initiated resolutions, count"
scalar Simple_test.r1.ipv4.arp arpReplySent:count 4
attr source arpReplySent
attr title "ARP replies sent, count"
scalar Simple_test.r1.ipv4.arp arpReplySent:sum(packetBytes) 112
attr source arpReplySent
attr title "ARP replies sent, sum(packetBytes)"
scalar Simple_test.r1.ipv4.arp arpRequestSent:count 1
attr source arpRequestSent
attr title "ARP request sent, count"
scalar Simple_test.r1.ipv4.arp arpRequestSent:sum(packetBytes) 28
attr source arpRequestSent
attr title "ARP request sent, sum(packetBytes)"
scalar Simple_test.cli[0].lo[0].lo rcvdPkFromHl:count 0
attr interpolationmode none
attr source packetReceivedFromUpper
attr title "packets received from higher layer, count"
scalar Simple_test.cli[0].lo[0].lo rcvdPkFromHl:sum(packetBytes) 0
attr interpolationmode none
attr source packetReceivedFromUpper
attr title "packets received from higher layer, sum(packetBytes)"
scalar Simple_test.cli[0].lo[0].lo passedUpPk:count 0
attr interpolationmode none
attr source packetSentToUpper
attr title "packets passed to higher layer, count"
scalar Simple_test.cli[0].lo[0].lo passedUpPk:sum(packetBytes) 0
attr interpolationmode none
attr source packetSentToUpper
attr title "packets passed to higher layer, sum(packetBytes)"
scalar Simple_test.cli[0].eth[0].mac.queue packetPopped:count 210
attr interpolationmode none
attr title "packet popped, count"
scalar Simple_test.cli[0].eth[0].mac.queue packetPopped:sum(packetBytes) 13440
attr interpolationmode none
attr title "packet popped, sum(packetBytes)"
statistic Simple_test.cli[0].eth[0].mac.queue queueingTime:histogram
field count 210
field mean 0
field stddev 0
field min 0
field max 0
field sum 0
field sqrsum 0
attr interpolationmode none
attr source queueingTime(packetPopped)
attr title "queueing times, histogram"
attr unit s
bin	-inf	0
bin	-0.5	0
bin	-0.48	0
bin	-0.46	0
bin	-0.44	0
bin	-0.42	0
bin	-0.4	0
bin	-0.38	0
bin	-0.36	0
bin	-0.34	0
bin	-0.32	0
bin	-0.3	0
bin	-0.28	0
bin	-0.26	0
bin	-0.24	0
bin	-0.22	0
bin	-0.2	0
bin	-0.18	0
bin	-0.16	0
bin	-0.14	0
bin	-0.12	0
bin	-0.1	0
bin	-0.08	0
bin	-0.06	0
bin	-0.04	0
bin	-0.02	0
bin	0	210
bin	0.02	0
bin	0.04	0
bin	0.06	0
bin	0.08	0
bin	0.1	0
bin	0.12	0
bin	0.14	0
bin	0.16	0
bin	0.18	0
bin	0.2	0
bin	0.22	0
bin	0.24	0
bin	0.26	0
bin	0.28	0
bin	0.3	0
bin	0.32	0
bin	0.34	0
bin	0.36	0
bin	0.38	0
bin	0.4	0
bin	0.42	0
bin	0.44	0
bin	0.46	0
bin	0.48	0
bin	0.5	0
scalar Simple_test.cli[0].eth[0].mac.queue queueLength:max 1
attr interpolationmode sample-hold
attr source "count(packetPushed) - count(packetPopped) - count(packetRemoved) - count(packetDropped)"
attr title "queue length, max"
scalar Simple_test.cli[0].eth[0].mac.queue queueLength:timeavg 0
attr interpolationmode sample-hold
attr source "count(packetPushed) - count(packetPopped) - count(packetRemoved) - count(packetDropped)"
attr title "queue length, timeavg"
scalar Simple_test.cli[0].eth[0].mac.queue packetPushed:count 210
attr interpolationmode none
attr title "packet pushed, count"
scalar Simple_test.cli[0].eth[0].mac.queue packetPushed:sum(packetBytes) 13440
attr interpolationmode none
attr title "packet pushed, sum(packetBytes)"
scalar Simple_test.cli[0].eth[0].mac.queue packetDropQueueOverflow:count 0
attr interpolationmode none
attr source packetDropReasonIsQueueOverflow(packetDropped)
attr title "packet drops: queue overflow, count"
scalar Simple_test.cli[0].eth[0].mac.queue packetDropQueueOverflow:sum(packetBytes) 0
attr interpolationmode none
attr source packetDropReasonIsQueueOverflow(packetDropped)
attr title "packet drops: queue overflow, sum(packetBytes)"
scalar Simple_test.cli[0].eth[0].mac.queue packetRemoved:count 0
attr interpolationmode none
attr title "packets removed, count"
scalar Simple_test.cli[0].eth[0].mac.queue packetRemoved:sum(packetBytes) 0
attr interpolationmode none
attr title "packets removed, sum(packetBytes)"
scalar Simple_test.cli[0].eth[0].mac "simulated time" 20.9001922
scalar Simple_test.cli[0].eth[0].mac full-duplex 1
scalar Simple_test.cli[0].eth[0].mac "frames/sec sent" 10.047754489071
scalar Simple_test.cli[0].eth[0].mac "frames/sec rcvd" 9.9999080391232
scalar Simple_test.cli[0].eth[0].mac "bits/sec sent" 5144.4502984044
scalar Simple_test.cli[0].eth[0].mac "bits/sec rcvd" 5119.9529160311
scalar Simple_test.cli[0].eth[0].mac "rx channel idle (%)" 99.942400529695
scalar Simple_test.cli[0].eth[0].mac "rx channel utilization (%)" 0.05759947030535
scalar Simple_test.cli[0].eth[0].mac "rx channel collision (%)" 0
scalar Simple_test.cli[0].eth[0].mac collisions 0
scalar Simple_test.cli[0].eth[0].mac backoffs 0
scalar Simple_test.cli[0].eth[0].mac rxPausePkUnits:count 0
attr interpolationmode none
attr title "pause units received, count"
scalar Simple_test.cli[0].eth[0].mac rxPausePkUnits:sum 0
attr interpolationmode none
attr title "pause units received, sum"
scalar Simple_test.cli[0].eth[0].mac txPausePkUnits:count 0
attr interpolationmode none
attr title "pause units sent, count"
scalar Simple_test.cli[0].eth[0].mac txPausePkUnits:sum 0
attr interpolationmode none
attr title "pause units sent, sum"
scalar Simple_test.cli[0].eth[0].mac rxPkOk:count 209
attr interpolationmode none
attr source rxPkOk
attr title "packets received OK, count"
scalar Simple_test.cli[0].eth[0].mac rxPkOk:sum(packetBytes) 13376
attr interpolationmode none
attr source rxPkOk
attr title "packets received OK, sum(packetBytes)"
scalar Simple_test.cli[0].eth[0].mac backoffSlotsGenerated:count 0
attr interpolationmode none
attr title "backoff, count"
scalar Simple_test.cli[0].eth[0].mac collision:count 0
attr interpolationmode none
attr title "collision, count"
scalar Simple_test.cli[0].eth[0].mac txPk:count 210
attr interpolationmode none
attr source packetSentToLower
attr title "packets transmitted, count"
scalar Simple_test.cli[0].eth[0].mac txPk:sum(packetBytes) 13440
attr interpolationmode none
attr source packetSentToLower
attr title "packets transmitted, sum(packetBytes)"
scalar Simple_test.cli[0].eth[0].mac packetReceivedFromUpper:count 210
attr interpolationmode none
attr source packetReceivedFromUpper
attr title "packet bytes from higher layer, count"
scalar Simple_test.cli[0].eth[0].mac packetReceivedFromUpper:sum(packetBytes) 11750
attr interpolationmode none
attr source packetReceivedFromUpper
attr title "packet bytes from higher layer, sum(packetBytes)"
scalar Simple_test.cli[0].eth[0].mac passedUpPk:count 209
attr interpolationmode none
attr source packetSentToUpper
attr title "packets passed to higher layer, count"
scalar Simple_test.cli[0].eth[0].mac passedUpPk:sum(packetBytes) 13376
attr interpolationmode none
attr source packetSentToUpper
attr title "packets passed to higher layer, sum(packetBytes)"
scalar Simple_test.cli[0].eth[0].mac packetDropIncorrectlyReceived:count 0
attr interpolationmode none
attr source packetDropReasonIsIncorrectlyReceived(packetDropped)
attr title "packet drop: incorrectly received, count"
scalar Simple_test.cli[0].eth[0].mac packetDropIncorrectlyReceived:sum(packetBytes) 0
attr interpolationmode none
attr source packetDropReasonIsIncorrectlyReceived(packetDropped)
attr title "packet drop: incorrectly received, sum(packetBytes)"
scalar Simple_test.cli[0].eth[0].mac packetDropInterfaceDown:count 0
attr interpolationmode none
attr source packetDropReasonIsInterfaceDown(packetDropped)
attr title "packet drop: interface down, count"
scalar Simple_test.cli[0].eth[0].mac packetDropInterfaceDown:sum(packetBytes) 0
attr interpolationmode none
attr source packetDropReasonIsInterfaceDown(packetDropped)
attr title "packet drop: interface down, sum(packetBytes)"
scalar Simple_test.cli[0].eth[0].mac packetDropNotAddressedToUs:count 0
attr interpolationmode none
attr source packetDropReasonIsNotAddressedToUs(packetDropped)
attr title "packet drop: not addressed to us, count"
scalar Simple_test.cli[0].eth[0].mac packetDropNotAddressedToUs:sum(packetBytes) 0
attr interpolationmode none
attr source packetDropReasonIsNotAddressedToUs(packetDropped)
attr title "packet drop: not addressed to us, sum(packetBytes)"
scalar Simple_test.cli[0].eth[0].encap pauseSent:count 0
attr title "pause sent, count"
scalar Simple_test.cli[0].eth[0].encap pauseSent:sum 0
attr title "pause sent, sum"
scalar Simple_test.cli[0].eth[0].encap decapPk:count 209
attr interpolationmode none
attr source decapPk
attr title "packets decapsulated, count"
scalar Simple_test.cli[0].eth[0].encap decapPk:sum(packetBytes) 9614
attr interpolationmode none
attr source decapPk
attr title "packets decapsulated, sum(packetBytes)"
scalar Simple_test.cli[0].eth[0].encap encapPk:count 210
attr interpolationmode none
attr source encapPk
attr title "packets encapsulated, count"
scalar Simple_test.cli[0].eth[0].encap encapPk:sum(packetBytes) 7970
attr interpolationmode none
attr source encapPk
attr title "packets encapsulated, sum(packetBytes)"
scalar Simple_test.cli[0].ipv4.ip packetDropAddressResolutionFailed:count 0
attr interpolationmode none
attr source packetDropReasonIsAddressResolutionFailed(packetDropped)
attr title "packet drop: address resolution failed, count"
scalar Simple_test.cli[0].ipv4.ip packetDropAddressResolutionFailed:sum(packetBytes) 0
attr interpolationmode none
attr source packetDropReasonIsAddressResolutionFailed(packetDropped)
attr title "packet drop: address resolution failed, sum(packetBytes)"
scalar Simple_test.cli[0].ipv4.ip packetDropHopLimitReached:count 0
attr interpolationmode none
attr source packetDropReasonIsHopLimitReached(packetDropped)
attr title "packet drop: hop limit reached, count"
scalar Simple_test.cli[0].ipv4.ip packetDropHopLimitReached:sum(packetBytes) 0
attr interpolationmode none
attr source packetDropReasonIsHopLimitReached(packetDropped)
attr title "packet drop: hop limit reached, sum(packetBytes)"
scalar Simple_test.cli[0].ipv4.ip packetDropForwardingDisabled:count 0
attr interpolationmode none
attr source packetDropReasonIsForwardingDisabled(packetDropped)
attr title "packet drop: forwarding disabled, count"
scalar Simple_test.cli[0].ipv4.ip packetDropForwardingDisabled:sum(packetBytes) 0
attr interpolationmode none
attr source packetDropReasonIsForwardingDisabled(packetDropped)
attr title "packet drop: forwarding disabled, sum(packetBytes)"
scalar Simple_test.cli[0].ipv4.ip packetDropNoInterfaceFound:count 0
attr interpolationmode none
attr source packetDropReasonIsNoInterfaceFound(packetDropped)
attr title "packet drop: no interface found, count"
scalar Simple_test.cli[0].ipv4.ip packetDropNoInterfaceFound:sum(packetBytes) 0
attr interpolationmode none
attr source packetDropReasonIsNoInterfaceFound(packetDropped)
attr title "packet drop: no interface found, sum(packetBytes)"
scalar Simple_test.cli[0].ipv4.ip packetDropNoRouteFound:count 0
attr interpolationmode none
attr source packetDropReasonIsNoRouteFound(packetDropped)
attr title "packet drop: no route found, count"
scalar Simple_test.cli[0].ipv4.ip packetDropNoRouteFound:sum(packetBytes) 0
attr interpolationmode none
attr source packetDropReasonIsNoRouteFound(packetDropped)
attr title "packet drop: no route found, sum(packetBytes)"
scalar Simple_test.cli[0].ipv4.ip packetDropUndefined:count 0
attr interpolationmode none
attr source packetDropReasonIsUndefined(packetDropped)
attr title "packet drop: undefined, count"
scalar Simple_test.cli[0].ipv4.ip packetDropUndefined:sum(packetBytes) 0
attr interpolationmode none
attr source packetDropReasonIsUndefined(packetDropped)
attr title "packet drop: undefined, sum(packetBytes)"
scalar Simple_test.cli[0].ipv4.arp arpResolutionFailed:count 0
attr title "ARP failed resolutions, count"
scalar Simple_test.cli[0].ipv4.arp arpResolutionCompleted:count 1
attr title "ARP completed resolutions, count"
scalar Simple_test.cli[0].ipv4.arp arpResolutionInitiated:count 1
attr title "ARP initiated resolutions, count"
scalar Simple_test.cli[0].ipv4.arp arpReplySent:count 0
attr source arpReplySent
attr title "ARP replies sent, count"
scalar Simple_test.cli[0].ipv4.arp arpReplySent:sum(packetBytes) 0
attr source arpReplySent
attr title "ARP replies sent, sum(packetBytes)"
scalar Simple_test.cli[0].ipv4.arp arpRequestSent:count 1
attr source arpRequestSent
attr title "ARP request sent, count"
scalar Simple_test.cli[0].ipv4.arp arpRequestSent:sum(packetBytes) 28
attr source arpRequestSent
attr title "ARP request sent, sum(packetBytes)"
scalar Simple_test.cli[0].udp packetReceived:count 208
attr interpolationmode none
attr source packetReceived
attr title "packets received, count"
scalar Simple_test.cli[0].udp packetReceived:sum(packetBytes) 3744
attr interpolationmode none
attr source packetReceived
attr title "packets received, sum(packetBytes)"
scalar Simple_test.cli[0].udp packetSent:count 209
attr interpolationmode none
attr source packetSent
attr title "packets sent, count"
scalar Simple_test.cli[0].udp packetSent:sum(packetBytes) 3762
attr interpolationmode none
attr source packetSent
attr title "packets sent, sum(packetBytes)"
scalar Simple_test.cli[0].udp passedUpPk:count 208
attr interpolationmode none
attr source packetSentToUpper
attr title "packets passed up, count"
scalar Simple_test.cli[0].udp droppedPkWrongPort:count 0
attr interpolationmode none
attr source packetDropReasonIsNoPortFound(packetDropped)
attr title "packets dropped (wrong port), count"
scalar Simple_test.cli[0].udp droppedPkBadChecksum:count 0
attr interpolationmode none
attr source packetDropReasonIsIncorrectlyReceived(packetDropped)
attr title "packets dropped (checksum error), count"
scalar Simple_test.cli[0].app[0] "packets sent" 209
scalar Simple_test.cli[0].app[0] "packets received" 208
scalar Simple_test.cli[0].app[0] packetReceived:count 208
attr interpolationmode none
attr source packetReceived
attr title "packets received, count"
scalar Simple_test.cli[0].app[0] packetReceived:sum(packetBytes) 2080
attr interpolationmode none
attr source packetReceived
attr title "packets received, sum(packetBytes)"
statistic Simple_test.cli[0].app[0] rcvdPkLifetime:stats
field count 208
field mean 0.00024169423076923
field stddev 1.8665661602965e-05
field min 0.0002404
field max 0.0005096
field sum 0.0502724
field sqrsum 1.222266928e-05
attr interpolationmode none
attr source dataAge(packetReceived)
attr title "received packet lifetime, stats"
attr unit s
scalar Simple_test.cli[0].app[0] packetSent:count 209
attr interpolationmode none
attr source packetSent
attr title "packets sent, count"
scalar Simple_test.cli[0].app[0] packetSent:sum(packetBytes) 2090
attr interpolationmode none
attr source packetSent
attr title "packets sent, sum(packetBytes)"
scalar Simple_test.cli[1].lo[0].lo rcvdPkFromHl:count 0
attr interpolationmode none
attr source packetReceivedFromUpper
attr title "packets received from higher layer, count"
scalar Simple_test.cli[1].lo[0].lo rcvdPkFromHl:sum(packetBytes) 0
attr interpolationmode none
attr source packetReceivedFromUpper
attr title "packets received from higher layer, sum(packetBytes)"
scalar Simple_test.cli[1].lo[0].lo passedUpPk:count 0
attr interpolationmode none
attr source packetSentToUpper
attr title "packets passed to higher layer, count"
scalar Simple_test.cli[1].lo[0].lo passedUpPk:sum(packetBytes) 0
attr interpolationmode none
attr source packetSentToUpper
attr title "packets passed to higher layer, sum(packetBytes)"
scalar Simple_test.cli[1].eth[0].mac.queue packetPopped:count 210
attr interpolationmode none
attr title "packet popped, count"
scalar Simple_test.cli[1].eth[0].mac.queue packetPopped:sum(packetBytes) 13440
attr interpolationmode none
attr title "packet popped, sum(packetBytes)"
statistic Simple_test.cli[1].eth[0].mac.queue queueingTime:histogram
field count 210
field mean 0
field stddev 0
field min 0
field max 0
field sum 0
field sqrsum 0
attr interpolationmode none
attr source queueingTime(packetPopped)
attr title "queueing times, histogram"
attr unit s
bin	-inf	0
bin	-0.5	0
bin	-0.48	0
bin	-0.46	0
bin	-0.44	0
bin	-0.42	0
bin	-0.4	0
bin	-0.38	0
bin	-0.36	0
bin	-0.34	0
bin	-0.32	0
bin	-0.3	0
bin	-0.28	0
bin	-0.26	0
bin	-0.24	0
bin	-0.22	0
bin	-0.2	0
bin	-0.18	0
bin	-0.16	0
bin	-0.14	0
bin	-0.12	0
bin	-0.1	0
bin	-0.08	0
bin	-0.06	0
bin	-0.04	0
bin	-0.02	0
bin	0	210
bin	0.02	0
bin	0.04	0
bin	0.06	0
bin	0.08	0
bin	0.1	0
bin	0.12	0
bin	0.14	0
bin	0.16	0
bin	0.18	0
bin	0.2	0
bin	0.22	0
bin	0.24	0
bin	0.26	0
bin	0.28	0
bin	0.3	0
bin	0.32	0
bin	0.34	0
bin	0.36	0
bin	0.38	0
bin	0.4	0
bin	0.42	0
bin	0.44	0
bin	0.46	0
bin	0.48	0
bin	0.5	0
scalar Simple_test.cli[1].eth[0].mac.queue queueLength:max 1
attr interpolationmode sample-hold
attr source "count(packetPushed) - count(packetPopped) - count(packetRemoved) - count(packetDropped)"
attr title "queue length, max"
scalar Simple_test.cli[1].eth[0].mac.queue queueLength:timeavg 0
attr interpolationmode sample-hold
attr source "count(packetPushed) - count(packetPopped) - count(packetRemoved) - count(packetDropped)"
attr title "queue length, timeavg"
scalar Simple_test.cli[1].eth[0].mac.queue packetPushed:count 210
attr interpolationmode none
attr title "packet pushed, count"
scalar Simple_test.cli[1].eth[0].mac.queue packetPushed:sum(packetBytes) 13440
attr interpolationmode none
attr title "packet pushed, sum(packetBytes)"
scalar Simple_test.cli[1].eth[0].mac.queue packetDropQueueOverflow:count 0
attr interpolationmode none
attr source packetDropReasonIsQueueOverflow(packetDropped)
attr title "packet drops: queue overflow, count"
scalar Simple_test.cli[1].eth[0].mac.queue packetDropQueueOverflow:sum(packetBytes) 0
attr interpolationmode none
attr source packetDropReasonIsQueueOverflow(packetDropped)
attr title "packet drops: queue overflow, sum(packetBytes)"
scalar Simple_test.cli[1].eth[0].mac.queue packetRemoved:count 0
attr interpolationmode none
attr title "packets removed, count"
scalar Simple_test.cli[1].eth[0].mac.queue packetRemoved:sum(packetBytes) 0
attr interpolationmode none
attr title "packets removed, sum(packetBytes)"
scalar Simple_test.cli[1].eth[0].mac "simulated time" 20.9001922
scalar Simple_test.cli[1].eth[0].mac full-duplex 1
scalar Simple_test.cli[1].eth[0].mac "frames/sec sent" 10.047754489071
scalar Simple_test.cli[1].eth[0].mac "frames/sec rcvd" 9.9999080391232
scalar Simple_test.cli[1].eth[0].mac "bits/sec sent" 5144.4502984044
scalar Simple_test.cli[1].eth[0].mac "bits/sec rcvd" 5119.9529160311
scalar Simple_test.cli[1].eth[0].mac "rx channel idle (%)" 99.942400529695
scalar Simple_test.cli[1].eth[0].mac "rx channel utilization (%)" 0.05759947030535
scalar Simple_test.cli[1].eth[0].mac "rx channel collision (%)" 0
scalar Simple_test.cli[1].eth[0].mac collisions 0
scalar Simple_test.cli[1].eth[0].mac backoffs 0
scalar Simple_test.cli[1].eth[0].mac rxPausePkUnits:count 0
attr interpolationmode none
attr title "pause units received, count"
scalar Simple_test.cli[1].eth[0].mac rxPausePkUnits:sum 0
attr interpolationmode none
attr title "pause units received, sum"
scalar Simple_test.cli[1].eth[0].mac txPausePkUnits:count 0
attr interpolationmode none
attr title "pause units sent, count"
scalar Simple_test.cli[1].eth[0].mac txPausePkUnits:sum 0
attr interpolationmode none
attr title "pause units sent, sum"
scalar Simple_test.cli[1].eth[0].mac rxPkOk:count 209
attr interpolationmode none
attr source rxPkOk
attr title "packets received OK, count"
scalar Simple_test.cli[1].eth[0].mac rxPkOk:sum(packetBytes) 13376
attr interpolationmode none
attr source rxPkOk
attr title "packets received OK, sum(packetBytes)"
scalar Simple_test.cli[1].eth[0].mac backoffSlotsGenerated:count 0
attr interpolationmode none
attr title "backoff, count"
scalar Simple_test.cli[1].eth[0].mac collision:count 0
attr interpolationmode none
attr title "collision, count"
scalar Simple_test.cli[1].eth[0].mac txPk:count 210
attr interpolationmode none
attr source packetSentToLower
attr title "packets transmitted, count"
scalar Simple_test.cli[1].eth[0].mac txPk:sum(packetBytes) 13440
attr interpolationmode none
attr source packetSentToLower
attr title "packets transmitted, sum(packetBytes)"
scalar Simple_test.cli[1].eth[0].mac packetReceivedFromUpper:count 210
attr interpolationmode none
attr source packetReceivedFromUpper
attr title "packet bytes from higher layer, count"
scalar Simple_test.cli[1].eth[0].mac packetReceivedFromUpper:sum(packetBytes) 11750
attr interpolationmode none
attr source packetReceivedFromUpper
attr title "packet bytes from higher layer, sum(packetBytes)"
scalar Simple_test.cli[1].eth[0].mac passedUpPk:count 209
attr interpolationmode none
attr source packetSentToUpper
attr title "packets passed to higher layer, count"
scalar Simple_test.cli[1].eth[0].mac passedUpPk:sum(packetBytes) 13376
attr interpolationmode none
attr source packetSentToUpper
attr title "packets passed to higher layer, sum(packetBytes)"
scalar Simple_test.cli[1].eth[0].mac packetDropIncorrectlyReceived:count 0
attr interpolationmode none
attr source packetDropReasonIsIncorrectlyReceived(packetDropped)
attr title "packet drop: incorrectly received, count"
scalar Simple_test.cli[1].eth[0].mac packetDropIncorrectlyReceived:sum(packetBytes) 0
attr interpolationmode none
attr source packetDropReasonIsIncorrectlyReceived(packetDropped)
attr title "packet drop: incorrectly received, sum(packetBytes)"
scalar Simple_test.cli[1].eth[0].mac packetDropInterfaceDown:count 0
attr interpolationmode none
attr source packetDropReasonIsInterfaceDown(packetDropped)
attr title "packet drop: interface down, count"
scalar Simple_test.cli[1].eth[0].mac packetDropInterfaceDown:sum(packetBytes) 0
attr interpolationmode none
attr source packetDropReasonIsInterfaceDown(packetDropped)
attr title "packet drop: interface down, sum(packetBytes)"
scalar Simple_test.cli[1].eth[0].mac packetDropNotAddressedToUs:count 0
attr interpolationmode none
attr source packetDropReasonIsNotAddressedToUs(packetDropped)
attr title "packet drop: not addressed to us, count"
scalar Simple_test.cli[1].eth[0].mac packetDropNotAddressedToUs:sum(packetBytes) 0
attr interpolationmode none
attr source packetDropReasonIsNotAddressedToUs(packetDropped)
attr title "packet drop: not addressed to us, sum(packetBytes)"
scalar Simple_test.cli[1].eth[0].encap pauseSent:count 0
attr title "pause sent, count"
scalar Simple_test.cli[1].eth[0].encap pauseSent:sum 0
attr title "pause sent, sum"
scalar Simple_test.cli[1].eth[0].encap decapPk:count 209
attr interpolationmode none
attr source decapPk
attr title "packets decapsulated, count"
scalar Simple_test.cli[1].eth[0].encap decapPk:sum(packetBytes) 9614
attr interpolationmode none
attr source decapPk
attr title "packets decapsulated, sum(packetBytes)"
scalar Simple_test.cli[1].eth[0].encap encapPk:count 210
attr interpolationmode none
attr source encapPk
attr title "packets encapsulated, count"
scalar Simple_test.cli[1].eth[0].encap encapPk:sum(packetBytes) 7970
attr interpolationmode none
attr source encapPk
attr title "packets encapsulated, sum(packetBytes)"
scalar Simple_test.cli[1].ipv4.ip packetDropAddressResolutionFailed:count 0
attr interpolationmode none
attr source packetDropReasonIsAddressResolutionFailed(packetDropped)
attr title "packet drop: address resolution failed, count"
scalar Simple_test.cli[1].ipv4.ip packetDropAddressResolutionFailed:sum(packetBytes) 0
attr interpolationmode none
attr source packetDropReasonIsAddressResolutionFailed(packetDropped)
attr title "packet drop: address resolution failed, sum(packetBytes)"
scalar Simple_test.cli[1].ipv4.ip packetDropHopLimitReached:count 0
attr interpolationmode none
attr source packetDropReasonIsHopLimitReached(packetDropped)
attr title "packet drop: hop limit reached, count"
scalar Simple_test.cli[1].ipv4.ip packetDropHopLimitReached:sum(packetBytes) 0
attr interpolationmode none
attr source packetDropReasonIsHopLimitReached(packetDropped)
attr title "packet drop: hop limit reached, sum(packetBytes)"
scalar Simple_test.cli[1].ipv4.ip packetDropForwardingDisabled:count 0
attr interpolationmode none
attr source packetDropReasonIsForwardingDisabled(packetDropped)
attr title "packet drop: forwarding disabled, count"
scalar Simple_test.cli[1].ipv4.ip packetDropForwardingDisabled:sum(packetBytes) 0
attr interpolationmode none
attr source packetDropReasonIsForwardingDisabled(packetDropped)
attr title "packet drop: forwarding disabled, sum(packetBytes)"
scalar Simple_test.cli[1].ipv4.ip packetDropNoInterfaceFound:count 0
attr interpolationmode none
attr source packetDropReasonIsNoInterfaceFound(packetDropped)
attr title "packet drop: no interface found, count"
scalar Simple_test.cli[1].ipv4.ip packetDropNoInterfaceFound:sum(packetBytes) 0
attr interpolationmode none
attr source packetDropReasonIsNoInterfaceFound(packetDropped)
attr title "packet drop: no interface found, sum(packetBytes)"
scalar Simple_test.cli[1].ipv4.ip packetDropNoRouteFound:count 0
attr interpolationmode none
attr source packetDropReasonIsNoRouteFound(packetDropped)
attr title "packet drop: no route found, count"
scalar Simple_test.cli[1].ipv4.ip packetDropNoRouteFound:sum(packetBytes) 0
attr interpolationmode none
attr source packetDropReasonIsNoRouteFound(packetDropped)
attr title "packet drop: no route found, sum(packetBytes)"
scalar Simple_test.cli[1].ipv4.ip packetDropUndefined:count 0
attr interpolationmode none
attr source packetDropReasonIsUndefined(packetDropped)
attr title "packet drop: undefined, count"
scalar Simple_test.cli[1].ipv4.ip packetDropUndefined:sum(packetBytes) 0
attr interpolationmode none
attr source packetDropReasonIsUndefined(packetDropped)
attr title "packet drop: undefined, sum(packetBytes)"
scalar Simple_test.cli[1].ipv4.arp arpResolutionFailed:count 0
attr title "ARP failed resolutions, count"
scalar Simple_test.cli[1].ipv4.arp arpResolutionCompleted:count 1
attr title "ARP completed resolutions, count"
scalar Simple_test.cli[1].ipv4.arp arpResolutionInitiated:count 1
attr title "ARP initiated resolutions, count"
scalar Simple_test.cli[1].ipv4.arp arpReplySent:count 0
attr source arpReplySent
attr title "ARP replies sent, count"
scalar Simple_test.cli[1].ipv4.arp arpReplySent:sum(packetBytes) 0
attr source arpReplySent
attr title "ARP replies sent, sum(packetBytes)"
scalar Simple_test.cli[1].ipv4.arp arpRequestSent:count 1
attr source arpRequestSent
attr title "ARP request sent, count"
scalar Simple_test.cli[1].ipv4.arp arpRequestSent:sum(packetBytes) 28
attr source arpRequestSent
attr title "ARP request sent, sum(packetBytes)"
scalar Simple_test.cli[1].udp packetReceived:count 208
attr interpolationmode none
attr source packetReceived
attr title "packets received, count"
scalar Simple_test.cli[1].udp packetReceived:sum(packetBytes) 3744
attr interpolationmode none
attr source packetReceived
attr title "packets received, sum(packetBytes)"
scalar Simple_test.cli[1].udp packetSent:count 209
attr interpolationmode none
attr source packetSent
attr title "packets sent, count"
scalar Simple_test.cli[1].udp packetSent:sum(packetBytes) 3762
attr interpolationmode none
attr source packetSent
attr title "packets sent, sum(packetBytes)"
scalar Simple_test.cli[1].udp passedUpPk:count 208
attr interpolationmode none
attr source packetSentToUpper
attr title "packets passed up, count"
scalar Simple_test.cli[1].udp droppedPkWrongPort:count 0
attr interpolationmode none
attr source packetDropReasonIsNoPortFound(packetDropped)
attr title "packets dropped (wrong port), count"
scalar Simple_test.cli[1].udp droppedPkBadChecksum:count 0
attr interpolationmode none
attr source packetDropReasonIsIncorrectlyReceived(packetDropped)
attr title "packets dropped (checksum error), count"
scalar Simple_test.cli[1].app[0] "packets sent" 209
scalar Simple_test.cli[1].app[0] "packets received" 208
scalar Simple_test.cli[1].app[0] packetReceived:count 208
attr interpolationmode none
attr source packetReceived
attr title "packets received, count"
scalar Simple_test.cli[1].app[0] packetReceived:sum(packetBytes) 2080
attr interpolationmode none
attr source packetReceived
attr title "packets received, sum(packetBytes)"
statistic Simple_test.cli[1].app[0] rcvdPkLifetime:stats
field count 208
field mean 0.00030889423076923
field stddev 1.8665661602998e-05
field min 0.0003076
field max 0.0005768
field sum 0.06425
field sqrsum 1.991857456e-05
attr interpolationmode none
attr source dataAge(packetReceived)
attr title "received packet lifetime, stats"
attr unit s
scalar Simple_test.cli[1].app[0] packetSent:count 209
attr interpolationmode none
attr source packetSent
attr title "packets sent, count"
scalar Simple_test.cli[1].app[0] packetSent:sum(packetBytes) 2090
attr interpolationmode none
attr source packetSent
attr title "packets sent, sum(packetBytes)"
scalar Simple_test.cli[2].lo[0].lo rcvdPkFromHl:count 0
attr interpolationmode none
attr source packetReceivedFromUpper
attr title "packets received from higher layer, count"
scalar Simple_test.cli[2].lo[0].lo rcvdPkFromHl:sum(packetBytes) 0
attr interpolationmode none
attr source packetReceivedFromUpper
attr title "packets received from higher layer, sum(packetBytes)"
scalar Simple_test.cli[2].lo[0].lo passedUpPk:count 0
attr interpolationmode none
attr source packetSentToUpper
attr title "packets passed to higher layer, count"
scalar Simple_test.cli[2].lo[0].lo passedUpPk:sum(packetBytes) 0
attr interpolationmode none
attr source packetSentToUpper
attr title "packets passed to higher layer, sum(packetBytes)"
scalar Simple_test.cli[2].eth[0].mac.queue packetPopped:count 210
attr interpolationmode none
attr title "packet popped, count"
scalar Simple_test.cli[2].eth[0].mac.queue packetPopped:sum(packetBytes) 13440
attr interpolationmode none
attr title "packet popped, sum(packetBytes)"
statistic Simple_test.cli[2].eth[0].mac.queue queueingTime:histogram
field count 210
field mean 0
field stddev 0
field min 0
field max 0
field sum 0
field sqrsum 0
attr interpolationmode none
attr source queueingTime(packetPopped)
attr title "queueing times, histogram"
attr unit s
bin	-inf	0
bin	-0.5	0
bin	-0.48	0
bin	-0.46	0
bin	-0.44	0
bin	-0.42	0
bin	-0.4	0
bin	-0.38	0
bin	-0.36	0
bin	-0.34	0
bin	-0.32	0
bin	-0.3	0
bin	-0.28	0
bin	-0.26	0
bin	-0.24	0
bin	-0.22	0
bin	-0.2	0
bin	-0.18	0
bin	-0.16	0
bin	-0.14	0
bin	-0.12	0
bin	-0.1	0
bin	-0.08	0
bin	-0.06	0
bin	-0.04	0
bin	-0.02	0
bin	0	210
bin	0.02	0
bin	0.04	0
bin	0.06	0
bin	0.08	0
bin	0.1	0
bin	0.12	0
bin	0.14	0
bin	0.16	0
bin	0.18	0
bin	0.2	0
bin	0.22	0
bin	0.24	0
bin	0.26	0
bin	0.28	0
bin	0.3	0
bin	0.32	0
bin	0.34	0
bin	0.36	0
bin	0.38	0
bin	0.4	0
bin	0.42	0
bin	0.44	0
bin	0.46	0
bin	0.48	0
bin	0.5	0
scalar Simple_test.cli[2].eth[0].mac.queue queueLength:max 1
attr interpolationmode sample-hold
attr source "count(packetPushed) - count(packetPopped) - count(packetRemoved) - count(packetDropped)"
attr title "queue length, max"
scalar Simple_test.cli[2].eth[0].mac.queue queueLength:timeavg 0
attr interpolationmode sample-hold
attr source "count(packetPushed) - count(packetPopped) - count(packetRemoved) - count(packetDropped)"
attr title "queue length, timeavg"
scalar Simple_test.cli[2].eth[0].mac.queue packetPushed:count 210
attr interpolationmode none
attr title "packet pushed, count"
scalar Simple_test.cli[2].eth[0].mac.queue packetPushed:sum(packetBytes) 13440
attr interpolationmode none
attr title "packet pushed, sum(packetBytes)"
scalar Simple_test.cli[2].eth[0].mac.queue packetDropQueueOverflow:count 0
attr interpolationmode none
attr source packetDropReasonIsQueueOverflow(packetDropped)
attr title "packet drops: queue overflow, count"
scalar Simple_test.cli[2].eth[0].mac.queue packetDropQueueOverflow:sum(packetBytes) 0
attr interpolationmode none
attr source packetDropReasonIsQueueOverflow(packetDropped)
attr title "packet drops: queue overflow, sum(packetBytes)"
scalar Simple_test.cli[2].eth[0].mac.queue packetRemoved:count 0
attr interpolationmode none
attr title "packets removed, count"
scalar Simple_test.cli[2].eth[0].mac.queue packetRemoved:sum(packetBytes) 0
attr interpolationmode none
attr title "packets removed, sum(packetBytes)"
scalar Simple_test.cli[2].eth[0].mac "simulated time" 20.9001922
scalar Simple_test.cli[2].eth[0].mac full-duplex 1
scalar Simple_test.cli[2].eth[0].mac "frames/sec sent" 10.047754489071
scalar Simple_test.cli[2].eth[0].mac "frames/sec rcvd" 9.9999080391232
scalar Simple_test.cli[2].eth[0].mac "bits/sec sent" 5144.4502984044
scalar Simple_test.cli[2].eth[0].mac "bits/sec rcvd" 5119.9529160311
scalar Simple_test.cli[2].eth[0].mac "rx channel idle (%)" 99.942400529695
scalar Simple_test.cli[2].eth[0].mac "rx channel utilization (%)" 0.05759947030535
scalar Simple_test.cli[2].eth[0].mac "rx channel collision (%)" 0
scalar Simple_test.cli[2].eth[0].mac collisions 0
scalar Simple_test.cli[2].eth[0].mac backoffs 0
scalar Simple_test.cli[2].eth[0].mac rxPausePkUnits:count 0
attr interpolationmode none
attr title "pause units received, count"
scalar Simple_test.cli[2].eth[0].mac rxPausePkUnits:sum 0
attr interpolationmode none
attr title "pause units received, sum"
scalar Simple_test.cli[2].eth[0].mac txPausePkUnits:count 0
attr interpolationmode none
attr title "pause units sent, count"
scalar Simple_test.cli[2].eth[0].mac txPausePkUnits:sum 0
attr interpolationmode none
attr title "pause units sent, sum"
scalar Simple_test.cli[2].eth[0].mac rxPkOk:count 209
attr interpolationmode none
attr source rxPkOk
attr title "packets received OK, count"
scalar Simple_test.cli[2].eth[0].mac rxPkOk:sum(packetBytes) 13376
attr interpolationmode none
attr source rxPkOk
attr title "packets received OK, sum(packetBytes)"
scalar Simple_test.cli[2].eth[0].mac backoffSlotsGenerated:count 0
attr interpolationmode none
attr title "backoff, count"
scalar Simple_test.cli[2].eth[0].mac collision:count 0
attr interpolationmode none
attr title "collision, count"
scalar Simple_test.cli[2].eth[0].mac txPk:count 210
attr interpolationmode none
attr source packetSentToLower
attr title "packets transmitted, count"
scalar Simple_test.cli[2].eth[0].mac txPk:sum(packetBytes) 13440
attr interpolationmode none
attr source packetSentToLower
attr title "packets transmitted, sum(packetBytes)"
scalar Simple_test.cli[2].eth[0].mac packetReceivedFromUpper:count 210
attr interpolationmode none
attr source packetReceivedFromUpper
attr title "packet bytes from higher layer, count"
scalar Simple_test.cli[2].eth[0].mac packetReceivedFromUpper:sum(packetBytes) 11750
attr interpolationmode none
attr source packetReceivedFromUpper
attr title "packet bytes from higher layer, sum(packetBytes)"
scalar Simple_test.cli[2].eth[0].mac passedUpPk:count 209
attr interpolationmode none
attr source packetSentToUpper
attr title "packets passed to higher layer, count"
scalar Simple_test.cli[2].eth[0].mac passedUpPk:sum(packetBytes) 13376
attr interpolationmode none
attr source packetSentToUpper
attr title "packets passed to higher layer, sum(packetBytes)"
scalar Simple_test.cli[2].eth[0].mac packetDropIncorrectlyReceived:count 0
attr interpolationmode none
attr source packetDropReasonIsIncorrectlyReceived(packetDropped)
attr title "packet drop: incorrectly received, count"
scalar Simple_test.cli[2].eth[0].mac packetDropIncorrectlyReceived:sum(packetBytes) 0
attr interpolationmode none
attr source packetDropReasonIsIncorrectlyReceived(packetDropped)
attr title "packet drop: incorrectly received, sum(packetBytes)"
scalar Simple_test.cli[2].eth[0].mac packetDropInterfaceDown:count 0
attr interpolationmode none
attr source packetDropReasonIsInterfaceDown(packetDropped)
attr title "packet drop: interface down, count"
scalar Simple_test.cli[2].eth[0].mac packetDropInterfaceDown:sum(packetBytes) 0
attr interpolationmode none
attr source packetDropReasonIsInterfaceDown(packetDropped)
attr title "packet drop: interface down, sum(packetBytes)"
scalar Simple_test.cli[2].eth[0].mac packetDropNotAddressedToUs:count 0
attr interpolationmode none
attr source packetDropReasonIsNotAddressedToUs(packetDropped)
attr title "packet drop: not addressed to us, count"
scalar Simple_test.cli[2].eth[0].mac packetDropNotAddressedToUs:sum(packetBytes) 0
attr interpolationmode none
attr source packetDropReasonIsNotAddressedToUs(packetDropped)
attr title "packet drop: not addressed to us, sum(packetBytes)"
scalar Simple_test.cli[2].eth[0].encap pauseSent:count 0
attr title "pause sent, count"
scalar Simple_test.cli[2].eth[0].encap pauseSent:sum 0
attr title "pause sent, sum"
scalar Simple_test.cli[2].eth[0].encap decapPk:count 209
attr interpolationmode none
attr source decapPk
attr title "packets decapsulated, count"
scalar Simple_test.cli[2].eth[0].encap decapPk:sum(packetBytes) 9614
attr interpolationmode none
attr source decapPk
attr title "packets decapsulated, sum(packetBytes)"
scalar Simple_test.cli[2].eth[0].encap encapPk:count 210
attr interpolationmode none
attr source encapPk
attr title "packets encapsulated, count"
scalar Simple_test.cli[2].eth[0].encap encapPk:sum(packetBytes) 7970
attr interpolationmode none
attr source encapPk
attr title "packets encapsulated, sum(packetBytes)"
scalar Simple_test.cli[2].ipv4.ip packetDropAddressResolutionFailed:count 0
attr interpolationmode none
attr source packetDropReasonIsAddressResolutionFailed(packetDropped)
attr title "packet drop: address resolution failed, count"
scalar Simple_test.cli[2].ipv4.ip packetDropAddressResolutionFailed:sum(packetBytes) 0
attr interpolationmode none
attr source packetDropReasonIsAddressResolutionFailed(packetDropped)
attr title "packet drop: address resolution failed, sum(packetBytes)"
scalar Simple_test.cli[2].ipv4.ip packetDropHopLimitReached:count 0
attr interpolationmode none
attr source packetDropReasonIsHopLimitReached(packetDropped)
attr title "packet drop: hop limit reached, count"
scalar Simple_test.cli[2].ipv4.ip packetDropHopLimitReached:sum(packetBytes) 0
attr interpolationmode none
attr source packetDropReasonIsHopLimitReached(packetDropped)
attr title "packet drop: hop limit reached, sum(packetBytes)"
[...]
attr source packetDropReasonIsNotAddressedToUs(packetDropped)
attr title "packet drop: not addressed to us, count"
scalar Simple_test.cli[3].eth[0].mac packetDropNotAddressedToUs:sum(packetBytes) 0
attr interpolationmode none
attr source packetDropReasonIsNotAddressedToUs(packetDropped)
attr title "packet drop: not addressed to us, sum(packetBytes)"
scalar Simple_test.cli[3].eth[0].encap pauseSent:count 0
attr title "pause sent, count"
scalar Simple_test.cli[3].eth[0].encap pauseSent:sum 0
attr title "pause sent, sum"
scalar Simple_test.cli[3].eth[0].encap decapPk:count 6
attr interpolationmode none
attr source decapPk
attr title "packets decapsulated, count"
scalar Simple_test.cli[3].eth[0].encap decapPk:sum(packetBytes) 276
attr interpolationmode none
attr source decapPk
attr title "packets decapsulated, sum(packetBytes)"
scalar Simple_test.cli[3].eth[0].encap encapPk:count 2443
attr interpolationmode none
attr source encapPk
attr title "packets encapsulated, count"
scalar Simple_test.cli[3].eth[0].encap encapPk:sum(packetBytes) 92824
attr interpolationmode none
attr source encapPk
attr title "packets encapsulated, sum(packetBytes)"
scalar Simple_test.cli[3].ipv4.ip packetDropAddressResolutionFailed:count 0
attr interpolationmode none
attr source packetDropReasonIsAddressResolutionFailed(packetDropped)
attr title "packet drop: address resolution failed, count"
scalar Simple_test.cli[3].ipv4.ip packetDropAddressResolutionFailed:sum(packetBytes) 0
attr interpolationmode none
attr source packetDropReasonIsAddressResolutionFailed(packetDropped)
attr title "packet drop: address resolution failed, sum(packetBytes)"
scalar Simple_test.cli[3].ipv4.ip packetDropHopLimitReached:count 0
attr interpolationmode none
attr source packetDropReasonIsHopLimitReached(packetDropped)
attr title "packet drop: hop limit reached, count"
scalar Simple_test.cli[3].ipv4.ip packetDropHopLimitReached:sum(packetBytes) 0
attr interpolationmode none
attr source packetDropReasonIsHopLimitReached(packetDropped)
attr title "packet drop: hop limit reached, sum(packetBytes)"
scalar Simple_test.cli[3].ipv4.ip packetDropForwardingDisabled:count 0
attr interpolationmode none
attr source packetDropReasonIsForwardingDisabled(packetDropped)
attr title "packet drop: forwarding disabled, count"
scalar Simple_test.cli[3].ipv4.ip packetDropForwardingDisabled:sum(packetBytes) 0
attr interpolationmode none
attr source packetDropReasonIsForwardingDisabled(packetDropped)
attr title "packet drop: forwarding disabled, sum(packetBytes)"
scalar Simple_test.cli[3].ipv4.ip packetDropNoInterfaceFound:count 0
attr interpolationmode none
attr source packetDropReasonIsNoInterfaceFound(packetDropped)
attr title "packet drop: no interface found, count"
scalar Simple_test.cli[3].ipv4.ip packetDropNoInterfaceFound:sum(packetBytes) 0
attr interpolationmode none
attr source packetDropReasonIsNoInterfaceFound(packetDropped)
attr title "packet drop: no interface found, sum(packetBytes)"
scalar Simple_test.cli[3].ipv4.ip packetDropNoRouteFound:count 0
attr interpolationmode none
attr source packetDropReasonIsNoRouteFound(packetDropped)
attr title "packet drop: no route found, count"
scalar Simple_test.cli[3].ipv4.ip packetDropNoRouteFound:sum(packetBytes) 0
attr interpolationmode none
attr source packetDropReasonIsNoRouteFound(packetDropped)
attr title "packet drop: no route found, sum(packetBytes)"
scalar Simple_test.cli[3].ipv4.ip packetDropUndefined:count 0
attr interpolationmode none
attr source packetDropReasonIsUndefined(packetDropped)
attr title "packet drop: undefined, count"
scalar Simple_test.cli[3].ipv4.ip packetDropUndefined:sum(packetBytes) 0
attr interpolationmode none
attr source packetDropReasonIsUndefined(packetDropped)
attr title "packet drop: undefined, sum(packetBytes)"
scalar Simple_test.cli[3].ipv4.arp arpResolutionFailed:count 0
attr title "ARP failed resolutions, count"
scalar Simple_test.cli[3].ipv4.arp arpResolutionCompleted:count 1
attr title "ARP completed resolutions, count"
scalar Simple_test.cli[3].ipv4.arp arpResolutionInitiated:count 1
attr title "ARP initiated resolutions, count"
scalar Simple_test.cli[3].ipv4.arp arpReplySent:count 0
attr source arpReplySent
attr title "ARP replies sent, count"
scalar Simple_test.cli[3].ipv4.arp arpReplySent:sum(packetBytes) 0
attr source arpReplySent
attr title "ARP replies sent, sum(packetBytes)"
scalar Simple_test.cli[3].ipv4.arp arpRequestSent:count 1
attr source arpRequestSent
attr title "ARP request sent, count"
scalar Simple_test.cli[3].ipv4.arp arpRequestSent:sum(packetBytes) 28
attr source arpRequestSent
attr title "ARP request sent, sum(packetBytes)"
scalar Simple_test.cli[3].udp packetReceived:count 5
attr interpolationmode none
attr source packetReceived
attr title "packets received, count"
scalar Simple_test.cli[3].udp packetReceived:sum(packetBytes) 90
attr interpolationmode none
attr source packetReceived
attr title "packets received, sum(packetBytes)"
scalar Simple_test.cli[3].udp packetSent:count 2443
attr interpolationmode none
attr source packetSent
attr title "packets sent, count"
scalar Simple_test.cli[3].udp packetSent:sum(packetBytes) 43974
attr interpolationmode none
attr source packetSent
attr title "packets sent, sum(packetBytes)"
scalar Simple_test.cli[3].udp passedUpPk:count 5
attr interpolationmode none
attr source packetSentToUpper
attr title "packets passed up, count"
scalar Simple_test.cli[3].udp droppedPkWrongPort:count 0
attr interpolationmode none
attr source packetDropReasonIsNoPortFound(packetDropped)
attr title "packets dropped (wrong port), count"
scalar Simple_test.cli[3].udp droppedPkBadChecksum:count 0
attr interpolationmode none
attr source packetDropReasonIsIncorrectlyReceived(packetDropped)
attr title "packets dropped (checksum error), count"
scalar Simple_test.cli[3].app[0] "packets sent" 2443
scalar Simple_test.cli[3].app[0] "packets received" 5
scalar Simple_test.cli[3].app[0] packetReceived:count 5
attr interpolationmode none
attr source packetReceived
attr title "packets received, count"
scalar Simple_test.cli[3].app[0] packetReceived:sum(packetBytes) 50
attr interpolationmode none
attr source packetReceived
attr title "packets received, sum(packetBytes)"
statistic Simple_test.cli[3].app[0] rcvdPkLifetime:stats
field count 5
field mean 0.10367572
field stddev 0.081400664264317
field min 0.0007112
field max 0.206648
field sum 0.5183786
field sqrsum 0.08024754715828
attr interpolationmode none
attr source dataAge(packetReceived)
attr title "received packet lifetime, stats"
attr unit s
scalar Simple_test.cli[3].app[0] packetSent:count 2443
attr interpolationmode none
attr source packetSent
attr title "packets sent, count"
scalar Simple_test.cli[3].app[0] packetSent:sum(packetBytes) 24430
attr interpolationmode none
attr source packetSent
attr title "packets sent, sum(packetBytes)"
scalar Simple_test.srv.lo[0].lo rcvdPkFromHl:count 0
attr interpolationmode none
attr source packetReceivedFromUpper
attr title "packets received from higher layer, count"
scalar Simple_test.srv.lo[0].lo rcvdPkFromHl:sum(packetBytes) 0
attr interpolationmode none
attr source packetReceivedFromUpper
attr title "packets received from higher layer, sum(packetBytes)"
scalar Simple_test.srv.lo[0].lo passedUpPk:count 0
attr interpolationmode none
attr source packetSentToUpper
attr title "packets passed to higher layer, count"
scalar Simple_test.srv.lo[0].lo passedUpPk:sum(packetBytes) 0
attr interpolationmode none
attr source packetSentToUpper
attr title "packets passed to higher layer, sum(packetBytes)"
scalar Simple_test.srv.eth[0].mac.queue packetPopped:count 22
attr interpolationmode none
attr title "packet popped, count"
scalar Simple_test.srv.eth[0].mac.queue packetPopped:sum(packetBytes) 1408
attr interpolationmode none
attr title "packet popped, sum(packetBytes)"
statistic Simple_test.srv.eth[0].mac.queue queueingTime:histogram
field count 22
field mean 0.086179236363636
field stddev 0.082782012111388
field min 0
field max 0.20506
field sum 1.8959432
field sqrsum 0.30730102927824
attr interpolationmode none
attr source queueingTime(packetPopped)
attr title "queueing times, histogram"
attr unit s
bin	-inf	0
bin	0	9
bin	0.005	0
bin	0.01	0
bin	0.015	0
bin	0.02	0
bin	0.025	0
bin	0.03	0
bin	0.035	0
bin	0.04	0
bin	0.045	0
bin	0.05	1
bin	0.055	0
bin	0.06	0
bin	0.065	0
bin	0.07	0
bin	0.075	0
bin	0.08	0
bin	0.085	0
bin	0.09	0
bin	0.095	0
bin	0.1	4
bin	0.105	0
bin	0.11	0
bin	0.115	0
bin	0.12	0
bin	0.125	0
bin	0.13	0
bin	0.135	0
bin	0.14	0
bin	0.145	0
bin	0.15	4
bin	0.155	0
bin	0.16	0
bin	0.165	0
bin	0.17	0
bin	0.175	0
bin	0.18	0
bin	0.185	0
bin	0.19	0
bin	0.195	0
bin	0.2	0
bin	0.205	4
bin	0.21	0
bin	0.215	0
bin	0.22	0
bin	0.225	0
bin	0.23	0
bin	0.235	0
bin	0.24	0
bin	0.245	0
bin	0.25	0
bin	0.255	0
bin	0.26	0
scalar Simple_test.srv.eth[0].mac.queue queueLength:max 53
attr interpolationmode sample-hold
attr source "count(packetPushed) - count(packetPopped) - count(packetRemoved) - count(packetDropped)"
attr title "queue length, max"
scalar Simple_test.srv.eth[0].mac.queue queueLength:timeavg 35.080528796885
attr interpolationmode sample-hold
attr source "count(packetPushed) - count(packetPopped) - count(packetRemoved) - count(packetDropped)"
attr title "queue length, timeavg"
scalar Simple_test.srv.eth[0].mac.queue packetPushed:count 75
attr interpolationmode none
attr title "packet pushed, count"
scalar Simple_test.srv.eth[0].mac.queue packetPushed:sum(packetBytes) 4800
attr interpolationmode none
attr title "packet pushed, sum(packetBytes)"
scalar Simple_test.srv.eth[0].mac.queue packetDropQueueOverflow:count 0
attr interpolationmode none
attr source packetDropReasonIsQueueOverflow(packetDropped)
attr title "packet drops: queue overflow, count"
scalar Simple_test.srv.eth[0].mac.queue packetDropQueueOverflow:sum(packetBytes) 0
attr interpolationmode none
attr source packetDropReasonIsQueueOverflow(packetDropped)
attr title "packet drops: queue overflow, sum(packetBytes)"
scalar Simple_test.srv.eth[0].mac.queue packetRemoved:count 0
attr interpolationmode none
attr title "packets removed, count"
scalar Simple_test.srv.eth[0].mac.queue packetRemoved:sum(packetBytes) 0
attr interpolationmode none
attr title "packets removed, sum(packetBytes)"
scalar Simple_test.srv.eth[0].mac "simulated time" 0.2443
scalar Simple_test.srv.eth[0].mac full-duplex 1
scalar Simple_test.srv.eth[0].mac "frames/sec sent" 85.959885386819
scalar Simple_test.srv.eth[0].mac "frames/sec rcvd" 306.99959066721
scalar Simple_test.srv.eth[0].mac "bits/sec sent" 44011.461318052
scalar Simple_test.srv.eth[0].mac "bits/sec rcvd" 157183.79042161
scalar Simple_test.srv.eth[0].mac "rx channel idle (%)" 97.854441260745
scalar Simple_test.srv.eth[0].mac "rx channel utilization (%)" 2.145558739255
scalar Simple_test.srv.eth[0].mac "rx channel collision (%)" 0
scalar Simple_test.srv.eth[0].mac collisions 0
scalar Simple_test.srv.eth[0].mac backoffs 0
scalar Simple_test.srv.eth[0].mac rxPausePkUnits:count 16
attr interpolationmode none
attr title "pause units received, count"
scalar Simple_test.srv.eth[0].mac rxPausePkUnits:sum 16000
attr interpolationmode none
attr title "pause units received, sum"
scalar Simple_test.srv.eth[0].mac txPausePkUnits:count 0
attr interpolationmode none
attr title "pause units sent, count"
scalar Simple_test.srv.eth[0].mac txPausePkUnits:sum 0
attr interpolationmode none
attr title "pause units sent, sum"
scalar Simple_test.srv.eth[0].mac rxPkOk:count 75
attr interpolationmode none
attr source rxPkOk
attr title "packets received OK, count"
scalar Simple_test.srv.eth[0].mac rxPkOk:sum(packetBytes) 4800
attr interpolationmode none
attr source rxPkOk
attr title "packets received OK, sum(packetBytes)"
scalar Simple_test.srv.eth[0].mac backoffSlotsGenerated:count 0
attr interpolationmode none
attr title "backoff, count"
scalar Simple_test.srv.eth[0].mac collision:count 0
attr interpolationmode none
attr title "collision, count"
scalar Simple_test.srv.eth[0].mac txPk:count 21
attr interpolationmode none
attr source packetSentToLower
attr title "packets transmitted, count"
scalar Simple_test.srv.eth[0].mac txPk:sum(packetBytes) 1344
attr interpolationmode none
attr source packetSentToLower
attr title "packets transmitted, sum(packetBytes)"
scalar Simple_test.srv.eth[0].mac packetReceivedFromUpper:count 75
attr interpolationmode none
attr source packetReceivedFromUpper
attr title "packet bytes from higher layer, count"
scalar Simple_test.srv.eth[0].mac packetReceivedFromUpper:sum(packetBytes) 4190
attr interpolationmode none
attr source packetReceivedFromUpper
attr title "packet bytes from higher layer, sum(packetBytes)"
scalar Simple_test.srv.eth[0].mac passedUpPk:count 75
attr interpolationmode none
attr source packetSentToUpper
attr title "packets passed to higher layer, count"
scalar Simple_test.srv.eth[0].mac passedUpPk:sum(packetBytes) 4800
attr interpolationmode none
attr source packetSentToUpper
attr title "packets passed to higher layer, sum(packetBytes)"
scalar Simple_test.srv.eth[0].mac packetDropIncorrectlyReceived:count 0
attr interpolationmode none
attr source packetDropReasonIsIncorrectlyReceived(packetDropped)
attr title "packet drop: incorrectly received, count"
scalar Simple_test.srv.eth[0].mac packetDropIncorrectlyReceived:sum(packetBytes) 0
attr interpolationmode none
attr source packetDropReasonIsIncorrectlyReceived(packetDropped)
attr title "packet drop: incorrectly received, sum(packetBytes)"
scalar Simple_test.srv.eth[0].mac packetDropInterfaceDown:count 0
attr interpolationmode none
attr source packetDropReasonIsInterfaceDown(packetDropped)
attr title "packet drop: interface down, count"
scalar Simple_test.srv.eth[0].mac packetDropInterfaceDown:sum(packetBytes) 0
attr interpolationmode none
attr source packetDropReasonIsInterfaceDown(packetDropped)
attr title "packet drop: interface down, sum(packetBytes)"
scalar Simple_test.srv.eth[0].mac packetDropNotAddressedToUs:count 0
attr interpolationmode none
attr source packetDropReasonIsNotAddressedToUs(packetDropped)
attr title "packet drop: not addressed to us, count"
scalar Simple_test.srv.eth[0].mac packetDropNotAddressedToUs:sum(packetBytes) 0
attr interpolationmode none
attr source packetDropReasonIsNotAddressedToUs(packetDropped)
attr title "packet drop: not addressed to us, sum(packetBytes)"
scalar Simple_test.srv.eth[0].encap pauseSent:count 0
attr title "pause sent, count"
scalar Simple_test.srv.eth[0].encap pauseSent:sum 0
attr title "pause sent, sum"
scalar Simple_test.srv.eth[0].encap decapPk:count 75
attr interpolationmode none
attr source decapPk
attr title "packets decapsulated, count"
scalar Simple_test.srv.eth[0].encap decapPk:sum(packetBytes) 3450
attr interpolationmode none
attr source decapPk
attr title "packets decapsulated, sum(packetBytes)"
scalar Simple_test.srv.eth[0].encap encapPk:count 75
attr interpolationmode none
attr source encapPk
attr title "packets encapsulated, count"
scalar Simple_test.srv.eth[0].encap encapPk:sum(packetBytes) 2840
attr interpolationmode none
attr source encapPk
attr title "packets encapsulated, sum(packetBytes)"
scalar Simple_test.srv.ipv4.ip packetDropAddressResolutionFailed:count 0
attr interpolationmode none
attr source packetDropReasonIsAddressResolutionFailed(packetDropped)
attr title "packet drop: address resolution failed, count"
scalar Simple_test.srv.ipv4.ip packetDropAddressResolutionFailed:sum(packetBytes) 0
attr interpolationmode none
attr source packetDropReasonIsAddressResolutionFailed(packetDropped)
attr title "packet drop: address resolution failed, sum(packetBytes)"
scalar Simple_test.srv.ipv4.ip packetDropHopLimitReached:count 0
attr interpolationmode none
attr source packetDropReasonIsHopLimitReached(packetDropped)
attr title "packet drop: hop limit reached, count"
scalar Simple_test.srv.ipv4.ip packetDropHopLimitReached:sum(packetBytes) 0
attr interpolationmode none
attr source packetDropReasonIsHopLimitReached(packetDropped)
attr title "packet drop: hop limit reached, sum(packetBytes)"
scalar Simple_test.srv.ipv4.ip packetDropForwardingDisabled:count 0
attr interpolationmode none
attr source packetDropReasonIsForwardingDisabled(packetDropped)
attr title "packet drop: forwarding disabled, count"
scalar Simple_test.srv.ipv4.ip packetDropForwardingDisabled:sum(packetBytes) 0
attr interpolationmode none
attr source packetDropReasonIsForwardingDisabled(packetDropped)
attr title "packet drop: forwarding disabled, sum(packetBytes)"
scalar Simple_test.srv.ipv4.ip packetDropNoInterfaceFound:count 0
attr interpolationmode none
attr source packetDropReasonIsNoInterfaceFound(packetDropped)
attr title "packet drop: no interface found, count"
scalar Simple_test.srv.ipv4.ip packetDropNoInterfaceFound:sum(packetBytes) 0
attr interpolationmode none
attr source packetDropReasonIsNoInterfaceFound(packetDropped)
attr title "packet drop: no interface found, sum(packetBytes)"
scalar Simple_test.srv.ipv4.ip packetDropNoRouteFound:count 0
attr interpolationmode none
attr source packetDropReasonIsNoRouteFound(packetDropped)
attr title "packet drop: no route found, count"
scalar Simple_test.srv.ipv4.ip packetDropNoRouteFound:sum(packetBytes) 0
attr interpolationmode none
attr source packetDropReasonIsNoRouteFound(packetDropped)
attr title "packet drop: no route found, sum(packetBytes)"
scalar Simple_test.srv.ipv4.ip packetDropUndefined:count 0
attr interpolationmode none
attr source packetDropReasonIsUndefined(packetDropped)
attr title "packet drop: undefined, count"
scalar Simple_test.srv.ipv4.ip packetDropUndefined:sum(packetBytes) 0
attr interpolationmode none
attr source packetDropReasonIsUndefined(packetDropped)
attr title "packet drop: undefined, sum(packetBytes)"
scalar Simple_test.srv.ipv4.arp arpResolutionFailed:count 0
attr title "ARP failed resolutions, count"
scalar Simple_test.srv.ipv4.arp arpResolutionCompleted:count 1
attr title "ARP completed resolutions, count"
scalar Simple_test.srv.ipv4.arp arpResolutionInitiated:count 0
attr title "ARP initiated resolutions, count"
scalar Simple_test.srv.ipv4.arp arpReplySent:count 1
attr source arpReplySent
attr title "ARP replies sent, count"
scalar Simple_test.srv.ipv4.arp arpReplySent:sum(packetBytes) 28
attr source arpReplySent
attr title "ARP replies sent, sum(packetBytes)"
scalar Simple_test.srv.ipv4.arp arpRequestSent:count 0
attr source arpRequestSent
attr title "ARP request sent, count"
scalar Simple_test.srv.ipv4.arp arpRequestSent:sum(packetBytes) 0
attr source arpRequestSent
attr title "ARP request sent, sum(packetBytes)"
scalar Simple_test.srv.udp packetReceived:count 74
attr interpolationmode none
attr source packetReceived
attr title "packets received, count"
scalar Simple_test.srv.udp packetReceived:sum(packetBytes) 1332
attr interpolationmode none
attr source packetReceived
attr title "packets received, sum(packetBytes)"
scalar Simple_test.srv.udp packetSent:count 74
attr interpolationmode none
attr source packetSent
attr title "packets sent, count"
scalar Simple_test.srv.udp packetSent:sum(packetBytes) 1332
attr interpolationmode none
attr source packetSent
attr title "packets sent, sum(packetBytes)"
scalar Simple_test.srv.udp passedUpPk:count 74
attr interpolationmode none
attr source packetSentToUpper
attr title "packets passed up, count"
scalar Simple_test.srv.udp droppedPkWrongPort:count 0
attr interpolationmode none
attr source packetDropReasonIsNoPortFound(packetDropped)
attr title "packets dropped (wrong port), count"
scalar Simple_test.srv.udp droppedPkBadChecksum:count 0
attr interpolationmode none
attr source packetDropReasonIsIncorrectlyReceived(packetDropped)
attr title "packets dropped (checksum error), count"
scalar Simple_test.srv.app[0] echoedPk:count 74
attr interpolationmode none
attr source packetSent
attr title "packets echoed, count"
scalar Simple_test.srv.app[0] echoedPk:sum(packetBytes) 740
attr interpolationmode none
attr source packetSent
attr title "packets echoed, sum(packetBytes)"

