version 2
run Simple-0-20210118-20:55:39-19296
attr configname Simple
attr datetime 20210118-20:55:39
attr experiment Simple
attr inifile omnetpp.ini
attr iterationvars ""
attr iterationvarsf ""
attr measurement ""
attr network Simple_test
attr processid 19296
attr repetition 0
attr replication #0
attr resultdir results
attr runnumber 0
attr seedset 0
param *.n 5
param **.r1.numEthInterfaces 6
param **.cli*.numApps 1
param **.cli*.app[0].typename "\"UdpBasicApp\""
param **.cli*.app[0].localPort -1
param **.cli*.app[0].sendInterval 1s
param **.cli*.app[0].messageLength 10B
param **.cli*.app[0].stopTime 25s
param **.srv*.numApps 1
param **.srv*.app[0].typename "\"UdpEchoApp\""
param **.srv*.app[0].localPort 1000
param **.r1.eth[*].typename "\"EthernetInterfacePFC\""
param **.mac.typename "\"EtherMac\""
param **.ppp[*].ppp.queue.typename "\"DropTailQueue\""
param **.ppp[*].ppp.queue.packetCapacity 100
param **.r1.eth[*].mac.typename "\"EtherMacPFC\""
param **.r1.eth[*].mac.data_thres 2560
param **.r1.eth[*].mac.pause_time 10
param **.cli*.app[0].destAddresses "\"srv\""
param **.cli*.app[0].destPort 1000
param **.crcMode "\"computed\""

scalar Simple_test.r1.lo[0].lo rcvdPkFromHl:count 0
attr interpolationmode none
attr source packetReceivedFromUpper
attr title "packets received from higher layer, count"
scalar Simple_test.r1.lo[0].lo rcvdPkFromHl:sum(packetBytes) 0
attr interpolationmode none
attr source packetReceivedFromUpper
attr title "packets received from higher layer, sum(packetBytes)"
scalar Simple_test.r1.lo[0].lo passedUpPk:count 0
attr interpolationmode none
attr source packetSentToUpper
attr title "packets passed to higher layer, count"
scalar Simple_test.r1.lo[0].lo passedUpPk:sum(packetBytes) 0
attr interpolationmode none
attr source packetSentToUpper
attr title "packets passed to higher layer, sum(packetBytes)"
scalar Simple_test.r1.eth[0].mac.queue packetPopped:count 4
attr interpolationmode none
attr title "packet popped, count"
scalar Simple_test.r1.eth[0].mac.queue packetPopped:sum(packetBytes) 256
attr interpolationmode none
attr title "packet popped, sum(packetBytes)"
statistic Simple_test.r1.eth[0].mac.queue queueingTime:histogram
field count 4
field mean 1.44e-05
field stddev 2.88e-05
field min 0
field max 5.76e-05
field sum 5.76e-05
field sqrsum 3.31776e-09
attr interpolationmode none
attr source queueingTime(packetPopped)
attr title "queueing times, histogram"
attr unit s
bin	-inf	0
bin	0	3
bin	1e-06	0
bin	2e-06	0
bin	3e-06	0
bin	4e-06	0
bin	5e-06	0
bin	6e-06	0
bin	7e-06	0
bin	8e-06	0
bin	9e-06	0
bin	1e-05	0
bin	1.1e-05	0
bin	1.2e-05	0
bin	1.3e-05	0
bin	1.4e-05	0
bin	1.5e-05	0
bin	1.6e-05	0
bin	1.7e-05	0
bin	1.8e-05	0
bin	1.9e-05	0
bin	2e-05	0
bin	2.1e-05	0
bin	2.2e-05	0
bin	2.3e-05	0
bin	2.4e-05	0
bin	2.5e-05	0
bin	2.6e-05	0
bin	2.7e-05	0
bin	2.8e-05	0
bin	2.9e-05	0
bin	3e-05	0
bin	3.1e-05	0
bin	3.2e-05	0
bin	3.3e-05	0
bin	3.4e-05	0
bin	3.5e-05	0
bin	3.6e-05	0
bin	3.7e-05	0
bin	3.8e-05	0
bin	3.9e-05	0
bin	4e-05	0
bin	4.1e-05	0
bin	4.2e-05	0
bin	4.3e-05	0
bin	4.4e-05	0
bin	4.5e-05	0
bin	4.6e-05	0
bin	4.7e-05	0
bin	4.8e-05	0
bin	4.9e-05	0
bin	5e-05	0
bin	5.1e-05	0
bin	5.2e-05	0
bin	5.3e-05	0
bin	5.4e-05	0
bin	5.5e-05	0
bin	5.6e-05	0
bin	5.7e-05	1
bin	5.8e-05	0
bin	5.9e-05	0
bin	6e-05	0
bin	6.1e-05	0
bin	6.2e-05	0
bin	6.3e-05	0
bin	6.4e-05	0
bin	6.5e-05	0
bin	6.6e-05	0
bin	6.7e-05	0
bin	6.8e-05	0
bin	6.9e-05	0
bin	7e-05	0
bin	7.1e-05	0
bin	7.2e-05	0
scalar Simple_test.r1.eth[0].mac.queue queueLength:max 1
attr interpolationmode sample-hold
attr source "count(packetPushed) - count(packetPopped) - count(packetRemoved) - count(packetDropped)"
attr title "queue length, max"
scalar Simple_test.r1.eth[0].mac.queue queueLength:timeavg 2.4000057700139e-06
attr interpolationmode sample-hold
attr source "count(packetPushed) - count(packetPopped) - count(packetRemoved) - count(packetDropped)"
attr title "queue length, timeavg"
scalar Simple_test.r1.eth[0].mac.queue packetPushed:count 4
attr interpolationmode none
attr title "packet pushed, count"
scalar Simple_test.r1.eth[0].mac.queue packetPushed:sum(packetBytes) 256
attr interpolationmode none
attr title "packet pushed, sum(packetBytes)"
scalar Simple_test.r1.eth[0].mac.queue packetDropQueueOverflow:count 0
attr interpolationmode none
attr source packetDropReasonIsQueueOverflow(packetDropped)
attr title "packet drops: queue overflow, count"
scalar Simple_test.r1.eth[0].mac.queue packetDropQueueOverflow:sum(packetBytes) 0
attr interpolationmode none
attr source packetDropReasonIsQueueOverflow(packetDropped)
attr title "packet drops: queue overflow, sum(packetBytes)"
scalar Simple_test.r1.eth[0].mac.queue packetRemoved:count 0
attr interpolationmode none
attr title "packets removed, count"
scalar Simple_test.r1.eth[0].mac.queue packetRemoved:sum(packetBytes) 0
attr interpolationmode none
attr title "packets removed, sum(packetBytes)"
scalar Simple_test.r1.eth[0].mac "simulated time" 25
scalar Simple_test.r1.eth[0].mac full-duplex 1
scalar Simple_test.r1.eth[0].mac "frames/sec sent" 0.16
scalar Simple_test.r1.eth[0].mac "frames/sec rcvd" 0.08
scalar Simple_test.r1.eth[0].mac "bits/sec sent" 81.92
scalar Simple_test.r1.eth[0].mac "bits/sec rcvd" 40.96
scalar Simple_test.r1.eth[0].mac "rx channel idle (%)" 99.9995392
scalar Simple_test.r1.eth[0].mac "rx channel utilization (%)" 0.0004608
scalar Simple_test.r1.eth[0].mac "rx channel collision (%)" 0
scalar Simple_test.r1.eth[0].mac collisions 0
scalar Simple_test.r1.eth[0].mac backoffs 0
scalar Simple_test.r1.eth[0].mac rxPausePkUnits:count 0
attr interpolationmode none
attr title "pause units received, count"
scalar Simple_test.r1.eth[0].mac rxPausePkUnits:sum 0
attr interpolationmode none
attr title "pause units received, sum"
scalar Simple_test.r1.eth[0].mac txPausePkUnits:count 2
attr interpolationmode none
attr title "pause units sent, count"
scalar Simple_test.r1.eth[0].mac txPausePkUnits:sum 10
attr interpolationmode none
attr title "pause units sent, sum"
scalar Simple_test.r1.eth[0].mac rxPkOk:count 2
attr interpolationmode none
attr source rxPkOk
attr title "packets received OK, count"
scalar Simple_test.r1.eth[0].mac rxPkOk:sum(packetBytes) 128
attr interpolationmode none
attr source rxPkOk
attr title "packets received OK, sum(packetBytes)"
scalar Simple_test.r1.eth[0].mac backoffSlotsGenerated:count 0
attr interpolationmode none
attr title "backoff, count"
scalar Simple_test.r1.eth[0].mac collision:count 0
attr interpolationmode none
attr title "collision, count"
scalar Simple_test.r1.eth[0].mac txPk:count 4
attr interpolationmode none
attr source packetSentToLower
attr title "packets transmitted, count"
scalar Simple_test.r1.eth[0].mac txPk:sum(packetBytes) 256
attr interpolationmode none
attr source packetSentToLower
attr title "packets transmitted, sum(packetBytes)"
scalar Simple_test.r1.eth[0].mac packetReceivedFromUpper:count 4
attr interpolationmode none
attr source packetReceivedFromUpper
attr title "packet bytes from higher layer, count"
scalar Simple_test.r1.eth[0].mac packetReceivedFromUpper:sum(packetBytes) 146
attr interpolationmode none
attr source packetReceivedFromUpper
attr title "packet bytes from higher layer, sum(packetBytes)"
scalar Simple_test.r1.eth[0].mac passedUpPk:count 2
attr interpolationmode none
attr source packetSentToUpper
attr title "packets passed to higher layer, count"
scalar Simple_test.r1.eth[0].mac passedUpPk:sum(packetBytes) 128
attr interpolationmode none
attr source packetSentToUpper
attr title "packets passed to higher layer, sum(packetBytes)"
scalar Simple_test.r1.eth[0].mac packetDropIncorrectlyReceived:count 0
attr interpolationmode none
attr source packetDropReasonIsIncorrectlyReceived(packetDropped)
attr title "packet drop: incorrectly received, count"
scalar Simple_test.r1.eth[0].mac packetDropIncorrectlyReceived:sum(packetBytes) 0
attr interpolationmode none
attr source packetDropReasonIsIncorrectlyReceived(packetDropped)
attr title "packet drop: incorrectly received, sum(packetBytes)"
scalar Simple_test.r1.eth[0].mac packetDropInterfaceDown:count 0
attr interpolationmode none
attr source packetDropReasonIsInterfaceDown(packetDropped)
attr title "packet drop: interface down, count"
scalar Simple_test.r1.eth[0].mac packetDropInterfaceDown:sum(packetBytes) 0
attr interpolationmode none
attr source packetDropReasonIsInterfaceDown(packetDropped)
attr title "packet drop: interface down, sum(packetBytes)"
scalar Simple_test.r1.eth[0].mac packetDropNotAddressedToUs:count 0
attr interpolationmode none
attr source packetDropReasonIsNotAddressedToUs(packetDropped)
attr title "packet drop: not addressed to us, count"
scalar Simple_test.r1.eth[0].mac packetDropNotAddressedToUs:sum(packetBytes) 0
attr interpolationmode none
attr source packetDropReasonIsNotAddressedToUs(packetDropped)
attr title "packet drop: not addressed to us, sum(packetBytes)"
scalar Simple_test.r1.eth[0].encap pauseSent:count 2
attr title "pause sent, count"
scalar Simple_test.r1.eth[0].encap pauseSent:sum 10
attr title "pause sent, sum"
scalar Simple_test.r1.eth[0].encap decapPk:count 2
attr interpolationmode none
attr source decapPk
attr title "packets decapsulated, count"
scalar Simple_test.r1.eth[0].encap decapPk:sum(packetBytes) 92
attr interpolationmode none
attr source decapPk
attr title "packets decapsulated, sum(packetBytes)"
scalar Simple_test.r1.eth[0].encap encapPk:count 2
attr interpolationmode none
attr source encapPk
attr title "packets encapsulated, count"
scalar Simple_test.r1.eth[0].encap encapPk:sum(packetBytes) 66
attr interpolationmode none
attr source encapPk
attr title "packets encapsulated, sum(packetBytes)"
scalar Simple_test.r1.eth[1].mac.queue packetPopped:count 6
attr interpolationmode none
attr title "packet popped, count"
scalar Simple_test.r1.eth[1].mac.queue packetPopped:sum(packetBytes) 384
attr interpolationmode none
attr title "packet popped, sum(packetBytes)"
statistic Simple_test.r1.eth[1].mac.queue queueingTime:histogram
field count 6
field mean 1.12e-05
field stddev 2.7434285119172e-05
field min 0
field max 6.72e-05
field sum 6.72e-05
field sqrsum 4.51584e-09
attr interpolationmode none
attr source queueingTime(packetPopped)
attr title "queueing times, histogram"
attr unit s
bin	-inf	0
bin	0	5
bin	1e-06	0
bin	2e-06	0
bin	3e-06	0
bin	4e-06	0
bin	5e-06	0
bin	6e-06	0
bin	7e-06	0
bin	8e-06	0
bin	9e-06	0
bin	1e-05	0
bin	1.1e-05	0
bin	1.2e-05	0
bin	1.3e-05	0
bin	1.4e-05	0
bin	1.5e-05	0
bin	1.6e-05	0
bin	1.7e-05	0
bin	1.8e-05	0
bin	1.9e-05	0
bin	2e-05	0
bin	2.1e-05	0
bin	2.2e-05	0
bin	2.3e-05	0
bin	2.4e-05	0
bin	2.5e-05	0
bin	2.6e-05	0
bin	2.7e-05	0
bin	2.8e-05	0
bin	2.9e-05	0
bin	3e-05	0
bin	3.1e-05	0
bin	3.2e-05	0
bin	3.3e-05	0
bin	3.4e-05	0
bin	3.5e-05	0
bin	3.6e-05	0
bin	3.7e-05	0
bin	3.8e-05	0
bin	3.9e-05	0
bin	4e-05	0
bin	4.1e-05	0
bin	4.2e-05	0
bin	4.3e-05	0
bin	4.4e-05	0
bin	4.5e-05	0
bin	4.6e-05	0
bin	4.7e-05	0
bin	4.8e-05	0
bin	4.9e-05	0
bin	5e-05	0
bin	5.1e-05	0
bin	5.2e-05	0
bin	5.3e-05	0
bin	5.4e-05	0
bin	5.5e-05	0
bin	5.6e-05	0
bin	5.7e-05	0
bin	5.8e-05	0
bin	5.9e-05	0
bin	6e-05	0
bin	6.1e-05	0
bin	6.2e-05	0
bin	6.3e-05	0
bin	6.4e-05	0
bin	6.5e-05	0
bin	6.6e-05	0
bin	6.7e-05	1
bin	6.8e-05	0
bin	6.9e-05	0
bin	7e-05	0
bin	7.1e-05	0
bin	7.2e-05	0
bin	7.3e-05	0
bin	7.4e-05	0
bin	7.5e-05	0
bin	7.6e-05	0
bin	7.7e-05	0
bin	7.8e-05	0
bin	7.9e-05	0
bin	8e-05	0
bin	8.1e-05	0
bin	8.2e-05	0
bin	8.3e-05	0
bin	8.4e-05	0
scalar Simple_test.r1.eth[1].mac.queue queueLength:max 1
attr interpolationmode sample-hold
attr source "count(packetPushed) - count(packetPopped) - count(packetRemoved) - count(packetDropped)"
attr title "queue length, max"
scalar Simple_test.r1.eth[1].mac.queue queueLength:timeavg 2.8000067316829e-06
attr interpolationmode sample-hold
attr source "count(packetPushed) - count(packetPopped) - count(packetRemoved) - count(packetDropped)"
attr title "queue length, timeavg"
scalar Simple_test.r1.eth[1].mac.queue packetPushed:count 6
attr interpolationmode none
attr title "packet pushed, count"
scalar Simple_test.r1.eth[1].mac.queue packetPushed:sum(packetBytes) 384
attr interpolationmode none
attr title "packet pushed, sum(packetBytes)"
scalar Simple_test.r1.eth[1].mac.queue packetDropQueueOverflow:count 0
attr interpolationmode none
attr source packetDropReasonIsQueueOverflow(packetDropped)
attr title "packet drops: queue overflow, count"
scalar Simple_test.r1.eth[1].mac.queue packetDropQueueOverflow:sum(packetBytes) 0
attr interpolationmode none
attr source packetDropReasonIsQueueOverflow(packetDropped)
attr title "packet drops: queue overflow, sum(packetBytes)"
scalar Simple_test.r1.eth[1].mac.queue packetRemoved:count 0
attr interpolationmode none
attr title "packets removed, count"
scalar Simple_test.r1.eth[1].mac.queue packetRemoved:sum(packetBytes) 0
attr interpolationmode none
attr title "packets removed, sum(packetBytes)"
scalar Simple_test.r1.eth[1].mac "simulated time" 25
scalar Simple_test.r1.eth[1].mac full-duplex 1
scalar Simple_test.r1.eth[1].mac "frames/sec sent" 0.24
scalar Simple_test.r1.eth[1].mac "frames/sec rcvd" 0.16
scalar Simple_test.r1.eth[1].mac "bits/sec sent" 122.88
scalar Simple_test.r1.eth[1].mac "bits/sec rcvd" 81.92
scalar Simple_test.r1.eth[1].mac "rx channel idle (%)" 99.9990784
scalar Simple_test.r1.eth[1].mac "rx channel utilization (%)" 0.0009216
scalar Simple_test.r1.eth[1].mac "rx channel collision (%)" 0
scalar Simple_test.r1.eth[1].mac collisions 0
scalar Simple_test.r1.eth[1].mac backoffs 0
scalar Simple_test.r1.eth[1].mac rxPausePkUnits:count 0
attr interpolationmode none
attr title "pause units received, count"
scalar Simple_test.r1.eth[1].mac rxPausePkUnits:sum 0
attr interpolationmode none
attr title "pause units received, sum"
scalar Simple_test.r1.eth[1].mac txPausePkUnits:count 4
attr interpolationmode none
attr title "pause units sent, count"
scalar Simple_test.r1.eth[1].mac txPausePkUnits:sum 20
attr interpolationmode none
attr title "pause units sent, sum"
scalar Simple_test.r1.eth[1].mac rxPkOk:count 4
attr interpolationmode none
attr source rxPkOk
attr title "packets received OK, count"
scalar Simple_test.r1.eth[1].mac rxPkOk:sum(packetBytes) 256
attr interpolationmode none
attr source rxPkOk
attr title "packets received OK, sum(packetBytes)"
scalar Simple_test.r1.eth[1].mac backoffSlotsGenerated:count 0
attr interpolationmode none
attr title "backoff, count"
scalar Simple_test.r1.eth[1].mac collision:count 0
attr interpolationmode none
attr title "collision, count"
scalar Simple_test.r1.eth[1].mac txPk:count 6
attr interpolationmode none
attr source packetSentToLower
attr title "packets transmitted, count"
scalar Simple_test.r1.eth[1].mac txPk:sum(packetBytes) 384
attr interpolationmode none
attr source packetSentToLower
attr title "packets transmitted, sum(packetBytes)"
scalar Simple_test.r1.eth[1].mac packetReceivedFromUpper:count 6
attr interpolationmode none
attr source packetReceivedFromUpper
attr title "packet bytes from higher layer, count"
scalar Simple_test.r1.eth[1].mac packetReceivedFromUpper:sum(packetBytes) 190
attr interpolationmode none
attr source packetReceivedFromUpper
attr title "packet bytes from higher layer, sum(packetBytes)"
scalar Simple_test.r1.eth[1].mac passedUpPk:count 4
attr interpolationmode none
attr source packetSentToUpper
attr title "packets passed to higher layer, count"
scalar Simple_test.r1.eth[1].mac passedUpPk:sum(packetBytes) 256
attr interpolationmode none
attr source packetSentToUpper
attr title "packets passed to higher layer, sum(packetBytes)"
scalar Simple_test.r1.eth[1].mac packetDropIncorrectlyReceived:count 0
attr interpolationmode none
attr source packetDropReasonIsIncorrectlyReceived(packetDropped)
attr title "packet drop: incorrectly received, count"
scalar Simple_test.r1.eth[1].mac packetDropIncorrectlyReceived:sum(packetBytes) 0
attr interpolationmode none
attr source packetDropReasonIsIncorrectlyReceived(packetDropped)
attr title "packet drop: incorrectly received, sum(packetBytes)"
scalar Simple_test.r1.eth[1].mac packetDropInterfaceDown:count 0
attr interpolationmode none
attr source packetDropReasonIsInterfaceDown(packetDropped)
attr title "packet drop: interface down, count"
scalar Simple_test.r1.eth[1].mac packetDropInterfaceDown:sum(packetBytes) 0
attr interpolationmode none
attr source packetDropReasonIsInterfaceDown(packetDropped)
attr title "packet drop: interface down, sum(packetBytes)"
scalar Simple_test.r1.eth[1].mac packetDropNotAddressedToUs:count 0
attr interpolationmode none
attr source packetDropReasonIsNotAddressedToUs(packetDropped)
attr title "packet drop: not addressed to us, count"
scalar Simple_test.r1.eth[1].mac packetDropNotAddressedToUs:sum(packetBytes) 0
attr interpolationmode none
attr source packetDropReasonIsNotAddressedToUs(packetDropped)
attr title "packet drop: not addressed to us, sum(packetBytes)"
scalar Simple_test.r1.eth[1].encap pauseSent:count 4
attr title "pause sent, count"
scalar Simple_test.r1.eth[1].encap pauseSent:sum 20
attr title "pause sent, sum"
scalar Simple_test.r1.eth[1].encap decapPk:count 4
attr interpolationmode none
attr source decapPk
attr title "packets decapsulated, count"
scalar Simple_test.r1.eth[1].encap decapPk:sum(packetBytes) 184
attr interpolationmode none
attr source decapPk
attr title "packets decapsulated, sum(packetBytes)"
scalar Simple_test.r1.eth[1].encap encapPk:count 2
attr interpolationmode none
attr source encapPk
attr title "packets encapsulated, count"
scalar Simple_test.r1.eth[1].encap encapPk:sum(packetBytes) 66
attr interpolationmode none
attr source encapPk
attr title "packets encapsulated, sum(packetBytes)"
scalar Simple_test.r1.eth[2].mac.queue packetPopped:count 6
attr interpolationmode none
attr title "packet popped, count"
scalar Simple_test.r1.eth[2].mac.queue packetPopped:sum(packetBytes) 384
attr interpolationmode none
attr title "packet popped, sum(packetBytes)"
statistic Simple_test.r1.eth[2].mac.queue queueingTime:histogram
field count 6
field mean 1.12e-05
field stddev 2.7434285119172e-05
field min 0
field max 6.72e-05
field sum 6.72e-05
field sqrsum 4.51584e-09
attr interpolationmode none
attr source queueingTime(packetPopped)
attr title "queueing times, histogram"
attr unit s
bin	-inf	0
bin	0	5
bin	1e-06	0
bin	2e-06	0
bin	3e-06	0
bin	4e-06	0
bin	5e-06	0
bin	6e-06	0
bin	7e-06	0
bin	8e-06	0
bin	9e-06	0
bin	1e-05	0
bin	1.1e-05	0
bin	1.2e-05	0
bin	1.3e-05	0
bin	1.4e-05	0
bin	1.5e-05	0
bin	1.6e-05	0
bin	1.7e-05	0
bin	1.8e-05	0
bin	1.9e-05	0
bin	2e-05	0
bin	2.1e-05	0
bin	2.2e-05	0
bin	2.3e-05	0
bin	2.4e-05	0
bin	2.5e-05	0
bin	2.6e-05	0
bin	2.7e-05	0
bin	2.8e-05	0
bin	2.9e-05	0
bin	3e-05	0
bin	3.1e-05	0
bin	3.2e-05	0
bin	3.3e-05	0
bin	3.4e-05	0
bin	3.5e-05	0
bin	3.6e-05	0
bin	3.7e-05	0
bin	3.8e-05	0
bin	3.9e-05	0
bin	4e-05	0
bin	4.1e-05	0
bin	4.2e-05	0
bin	4.3e-05	0
bin	4.4e-05	0
bin	4.5e-05	0
bin	4.6e-05	0
bin	4.7e-05	0
bin	4.8e-05	0
bin	4.9e-05	0
bin	5e-05	0
bin	5.1e-05	0
bin	5.2e-05	0
bin	5.3e-05	0
bin	5.4e-05	0
bin	5.5e-05	0
bin	5.6e-05	0
bin	5.7e-05	0
bin	5.8e-05	0
bin	5.9e-05	0
bin	6e-05	0
bin	6.1e-05	0
bin	6.2e-05	0
bin	6.3e-05	0
bin	6.4e-05	0
bin	6.5e-05	0
bin	6.6e-05	0
bin	6.7e-05	1
bin	6.8e-05	0
bin	6.9e-05	0
bin	7e-05	0
bin	7.1e-05	0
bin	7.2e-05	0
bin	7.3e-05	0
bin	7.4e-05	0
bin	7.5e-05	0
bin	7.6e-05	0
bin	7.7e-05	0
bin	7.8e-05	0
bin	7.9e-05	0
bin	8e-05	0
bin	8.1e-05	0
bin	8.2e-05	0
bin	8.3e-05	0
bin	8.4e-05	0
scalar Simple_test.r1.eth[2].mac.queue queueLength:max 1
attr interpolationmode sample-hold
attr source "count(packetPushed) - count(packetPopped) - count(packetRemoved) - count(packetDropped)"
attr title "queue length, max"
scalar Simple_test.r1.eth[2].mac.queue queueLength:timeavg 2.8000067316829e-06
attr interpolationmode sample-hold
attr source "count(packetPushed) - count(packetPopped) - count(packetRemoved) - count(packetDropped)"
attr title "queue length, timeavg"
scalar Simple_test.r1.eth[2].mac.queue packetPushed:count 6
attr interpolationmode none
attr title "packet pushed, count"
scalar Simple_test.r1.eth[2].mac.queue packetPushed:sum(packetBytes) 384
attr interpolationmode none
attr title "packet pushed, sum(packetBytes)"
scalar Simple_test.r1.eth[2].mac.queue packetDropQueueOverflow:count 0
attr interpolationmode none
attr source packetDropReasonIsQueueOverflow(packetDropped)
attr title "packet drops: queue overflow, count"
scalar Simple_test.r1.eth[2].mac.queue packetDropQueueOverflow:sum(packetBytes) 0
attr interpolationmode none
attr source packetDropReasonIsQueueOverflow(packetDropped)
attr title "packet drops: queue overflow, sum(packetBytes)"
scalar Simple_test.r1.eth[2].mac.queue packetRemoved:count 0
attr interpolationmode none
attr title "packets removed, count"
scalar Simple_test.r1.eth[2].mac.queue packetRemoved:sum(packetBytes) 0
attr interpolationmode none
attr title "packets removed, sum(packetBytes)"
scalar Simple_test.r1.eth[2].mac "simulated time" 25
scalar Simple_test.r1.eth[2].mac full-duplex 1
scalar Simple_test.r1.eth[2].mac "frames/sec sent" 0.24
scalar Simple_test.r1.eth[2].mac "frames/sec rcvd" 0.24
scalar Simple_test.r1.eth[2].mac "bits/sec sent" 122.88
scalar Simple_test.r1.eth[2].mac "bits/sec rcvd" 122.88
scalar Simple_test.r1.eth[2].mac "rx channel idle (%)" 99.9986176
scalar Simple_test.r1.eth[2].mac "rx channel utilization (%)" 0.0013824
scalar Simple_test.r1.eth[2].mac "rx channel collision (%)" 0
scalar Simple_test.r1.eth[2].mac collisions 0
scalar Simple_test.r1.eth[2].mac backoffs 0
scalar Simple_test.r1.eth[2].mac rxPausePkUnits:count 0
attr interpolationmode none
attr title "pause units received, count"
scalar Simple_test.r1.eth[2].mac rxPausePkUnits:sum 0
attr interpolationmode none
attr title "pause units received, sum"
scalar Simple_test.r1.eth[2].mac txPausePkUnits:count 4
attr interpolationmode none
attr title "pause units sent, count"
scalar Simple_test.r1.eth[2].mac txPausePkUnits:sum 20
attr interpolationmode none
attr title "pause units sent, sum"
scalar Simple_test.r1.eth[2].mac rxPkOk:count 6
attr interpolationmode none
attr source rxPkOk
attr title "packets received OK, count"
scalar Simple_test.r1.eth[2].mac rxPkOk:sum(packetBytes) 384
attr interpolationmode none
attr source rxPkOk
attr title "packets received OK, sum(packetBytes)"
scalar Simple_test.r1.eth[2].mac backoffSlotsGenerated:count 0
attr interpolationmode none
attr title "backoff, count"
scalar Simple_test.r1.eth[2].mac collision:count 0
attr interpolationmode none
attr title "collision, count"
scalar Simple_test.r1.eth[2].mac txPk:count 6
attr interpolationmode none
attr source packetSentToLower
attr title "packets transmitted, count"
scalar Simple_test.r1.eth[2].mac txPk:sum(packetBytes) 384
attr interpolationmode none
attr source packetSentToLower
attr title "packets transmitted, sum(packetBytes)"
scalar Simple_test.r1.eth[2].mac packetReceivedFromUpper:count 6
attr interpolationmode none
attr source packetReceivedFromUpper
attr title "packet bytes from higher layer, count"
scalar Simple_test.r1.eth[2].mac packetReceivedFromUpper:sum(packetBytes) 190
attr interpolationmode none
attr source packetReceivedFromUpper
attr title "packet bytes from higher layer, sum(packetBytes)"
scalar Simple_test.r1.eth[2].mac passedUpPk:count 6
attr interpolationmode none
attr source packetSentToUpper
attr title "packets passed to higher layer, count"
scalar Simple_test.r1.eth[2].mac passedUpPk:sum(packetBytes) 384
attr interpolationmode none
attr source packetSentToUpper
attr title "packets passed to higher layer, sum(packetBytes)"
scalar Simple_test.r1.eth[2].mac packetDropIncorrectlyReceived:count 0
attr interpolationmode none
attr source packetDropReasonIsIncorrectlyReceived(packetDropped)
attr title "packet drop: incorrectly received, count"
scalar Simple_test.r1.eth[2].mac packetDropIncorrectlyReceived:sum(packetBytes) 0
attr interpolationmode none
attr source packetDropReasonIsIncorrectlyReceived(packetDropped)
attr title "packet drop: incorrectly received, sum(packetBytes)"
scalar Simple_test.r1.eth[2].mac packetDropInterfaceDown:count 0
attr interpolationmode none
attr source packetDropReasonIsInterfaceDown(packetDropped)
attr title "packet drop: interface down, count"
scalar Simple_test.r1.eth[2].mac packetDropInterfaceDown:sum(packetBytes) 0
attr interpolationmode none
attr source packetDropReasonIsInterfaceDown(packetDropped)
attr title "packet drop: interface down, sum(packetBytes)"
scalar Simple_test.r1.eth[2].mac packetDropNotAddressedToUs:count 0
attr interpolationmode none
attr source packetDropReasonIsNotAddressedToUs(packetDropped)
attr title "packet drop: not addressed to us, count"
scalar Simple_test.r1.eth[2].mac packetDropNotAddressedToUs:sum(packetBytes) 0
attr interpolationmode none
attr source packetDropReasonIsNotAddressedToUs(packetDropped)
attr title "packet drop: not addressed to us, sum(packetBytes)"
scalar Simple_test.r1.eth[2].encap pauseSent:count 4
attr title "pause sent, count"
scalar Simple_test.r1.eth[2].encap pauseSent:sum 20
attr title "pause sent, sum"
scalar Simple_test.r1.eth[2].encap decapPk:count 6
attr interpolationmode none
attr source decapPk
attr title "packets decapsulated, count"
scalar Simple_test.r1.eth[2].encap decapPk:sum(packetBytes) 276
attr interpolationmode none
attr source decapPk
attr title "packets decapsulated, sum(packetBytes)"
scalar Simple_test.r1.eth[2].encap encapPk:count 2
attr interpolationmode none
attr source encapPk
attr title "packets encapsulated, count"
scalar Simple_test.r1.eth[2].encap encapPk:sum(packetBytes) 66
attr interpolationmode none
attr source encapPk
attr title "packets encapsulated, sum(packetBytes)"
scalar Simple_test.r1.eth[3].mac.queue packetPopped:count 5
attr interpolationmode none
attr title "packet popped, count"
scalar Simple_test.r1.eth[3].mac.queue packetPopped:sum(packetBytes) 320
attr interpolationmode none
attr title "packet popped, sum(packetBytes)"
statistic Simple_test.r1.eth[3].mac.queue queueingTime:histogram
field count 5
field mean 1.344e-05
field stddev 3.0052753617597e-05
field min 0
field max 6.72e-05
field sum 6.72e-05
field sqrsum 4.51584e-09
attr interpolationmode none
attr source queueingTime(packetPopped)
attr title "queueing times, histogram"
attr unit s
bin	-inf	0
bin	0	4
bin	1e-06	0
bin	2e-06	0
bin	3e-06	0
bin	4e-06	0
bin	5e-06	0
bin	6e-06	0
bin	7e-06	0
bin	8e-06	0
bin	9e-06	0
bin	1e-05	0
bin	1.1e-05	0
bin	1.2e-05	0
bin	1.3e-05	0
bin	1.4e-05	0
bin	1.5e-05	0
bin	1.6e-05	0
bin	1.7e-05	0
bin	1.8e-05	0
bin	1.9e-05	0
bin	2e-05	0
bin	2.1e-05	0
bin	2.2e-05	0
bin	2.3e-05	0
bin	2.4e-05	0
bin	2.5e-05	0
bin	2.6e-05	0
bin	2.7e-05	0
bin	2.8e-05	0
bin	2.9e-05	0
bin	3e-05	0
bin	3.1e-05	0
bin	3.2e-05	0
bin	3.3e-05	0
bin	3.4e-05	0
bin	3.5e-05	0
bin	3.6e-05	0
bin	3.7e-05	0
bin	3.8e-05	0
bin	3.9e-05	0
bin	4e-05	0
bin	4.1e-05	0
bin	4.2e-05	0
bin	4.3e-05	0
bin	4.4e-05	0
bin	4.5e-05	0
bin	4.6e-05	0
bin	4.7e-05	0
bin	4.8e-05	0
bin	4.9e-05	0
bin	5e-05	0
bin	5.1e-05	0
bin	5.2e-05	0
bin	5.3e-05	0
bin	5.4e-05	0
bin	5.5e-05	0
bin	5.6e-05	0
bin	5.7e-05	0
bin	5.8e-05	0
bin	5.9e-05	0
bin	6e-05	0
bin	6.1e-05	0
bin	6.2e-05	0
bin	6.3e-05	0
bin	6.4e-05	0
bin	6.5e-05	0
bin	6.6e-05	0
bin	6.7e-05	1
bin	6.8e-05	0
bin	6.9e-05	0
bin	7e-05	0
bin	7.1e-05	0
bin	7.2e-05	0
bin	7.3e-05	0
bin	7.4e-05	0
bin	7.5e-05	0
bin	7.6e-05	0
bin	7.7e-05	0
bin	7.8e-05	0
bin	7.9e-05	0
bin	8e-05	0
bin	8.1e-05	0
bin	8.2e-05	0
bin	8.3e-05	0
bin	8.4e-05	0
scalar Simple_test.r1.eth[3].mac.queue queueLength:max 1
attr interpolationmode sample-hold
attr source "count(packetPushed) - count(packetPopped) - count(packetRemoved) - count(packetDropped)"
attr title "queue length, max"
scalar Simple_test.r1.eth[3].mac.queue queueLength:timeavg 2.8000067316829e-06
attr interpolationmode sample-hold
attr source "count(packetPushed) - count(packetPopped) - count(packetRemoved) - count(packetDropped)"
attr title "queue length, timeavg"
scalar Simple_test.r1.eth[3].mac.queue packetPushed:count 5
attr interpolationmode none
attr title "packet pushed, count"
scalar Simple_test.r1.eth[3].mac.queue packetPushed:sum(packetBytes) 320
attr interpolationmode none
attr title "packet pushed, sum(packetBytes)"
scalar Simple_test.r1.eth[3].mac.queue packetDropQueueOverflow:count 0
attr interpolationmode none
attr source packetDropReasonIsQueueOverflow(packetDropped)
attr title "packet drops: queue overflow, count"
scalar Simple_test.r1.eth[3].mac.queue packetDropQueueOverflow:sum(packetBytes) 0
attr interpolationmode none
attr source packetDropReasonIsQueueOverflow(packetDropped)
attr title "packet drops: queue overflow, sum(packetBytes)"
scalar Simple_test.r1.eth[3].mac.queue packetRemoved:count 0
attr interpolationmode none
attr title "packets removed, count"
scalar Simple_test.r1.eth[3].mac.queue packetRemoved:sum(packetBytes) 0
attr interpolationmode none
attr title "packets removed, sum(packetBytes)"
scalar Simple_test.r1.eth[3].mac "simulated time" 25
scalar Simple_test.r1.eth[3].mac full-duplex 1
scalar Simple_test.r1.eth[3].mac "frames/sec sent" 0.2
scalar Simple_test.r1.eth[3].mac "frames/sec rcvd" 0.32
scalar Simple_test.r1.eth[3].mac "bits/sec sent" 102.4
scalar Simple_test.r1.eth[3].mac "bits/sec rcvd" 163.84
scalar Simple_test.r1.eth[3].mac "rx channel idle (%)" 99.9981568
scalar Simple_test.r1.eth[3].mac "rx channel utilization (%)" 0.0018432
scalar Simple_test.r1.eth[3].mac "rx channel collision (%)" 0
scalar Simple_test.r1.eth[3].mac collisions 0
scalar Simple_test.r1.eth[3].mac backoffs 0
scalar Simple_test.r1.eth[3].mac rxPausePkUnits:count 0
attr interpolationmode none
attr title "pause units received, count"
scalar Simple_test.r1.eth[3].mac rxPausePkUnits:sum 0
attr interpolationmode none
attr title "pause units received, sum"
scalar Simple_test.r1.eth[3].mac txPausePkUnits:count 4
attr interpolationmode none
attr title "pause units sent, count"
scalar Simple_test.r1.eth[3].mac txPausePkUnits:sum 20
attr interpolationmode none
attr title "pause units sent, sum"
scalar Simple_test.r1.eth[3].mac rxPkOk:count 8
attr interpolationmode none
attr source rxPkOk
attr title "packets received OK, count"
scalar Simple_test.r1.eth[3].mac rxPkOk:sum(packetBytes) 512
attr interpolationmode none
attr source rxPkOk
attr title "packets received OK, sum(packetBytes)"
scalar Simple_test.r1.eth[3].mac backoffSlotsGenerated:count 0
attr interpolationmode none
attr title "backoff, count"
scalar Simple_test.r1.eth[3].mac collision:count 0
attr interpolationmode none
attr title "collision, count"
scalar Simple_test.r1.eth[3].mac txPk:count 5
attr interpolationmode none
attr source packetSentToLower
attr title "packets transmitted, count"
scalar Simple_test.r1.eth[3].mac txPk:sum(packetBytes) 320
attr interpolationmode none
attr source packetSentToLower
attr title "packets transmitted, sum(packetBytes)"
scalar Simple_test.r1.eth[3].mac packetReceivedFromUpper:count 5
attr interpolationmode none
attr source packetReceivedFromUpper
attr title "packet bytes from higher layer, count"
scalar Simple_test.r1.eth[3].mac packetReceivedFromUpper:sum(packetBytes) 134
attr interpolationmode none
attr source packetReceivedFromUpper
attr title "packet bytes from higher layer, sum(packetBytes)"
scalar Simple_test.r1.eth[3].mac passedUpPk:count 8
attr interpolationmode none
attr source packetSentToUpper
attr title "packets passed to higher layer, count"
scalar Simple_test.r1.eth[3].mac passedUpPk:sum(packetBytes) 512
attr interpolationmode none
attr source packetSentToUpper
attr title "packets passed to higher layer, sum(packetBytes)"
scalar Simple_test.r1.eth[3].mac packetDropIncorrectlyReceived:count 0
attr interpolationmode none
attr source packetDropReasonIsIncorrectlyReceived(packetDropped)
attr title "packet drop: incorrectly received, count"
scalar Simple_test.r1.eth[3].mac packetDropIncorrectlyReceived:sum(packetBytes) 0
attr interpolationmode none
attr source packetDropReasonIsIncorrectlyReceived(packetDropped)
attr title "packet drop: incorrectly received, sum(packetBytes)"
scalar Simple_test.r1.eth[3].mac packetDropInterfaceDown:count 0
attr interpolationmode none
attr source packetDropReasonIsInterfaceDown(packetDropped)
attr title "packet drop: interface down, count"
scalar Simple_test.r1.eth[3].mac packetDropInterfaceDown:sum(packetBytes) 0
attr interpolationmode none
attr source packetDropReasonIsInterfaceDown(packetDropped)
attr title "packet drop: interface down, sum(packetBytes)"
scalar Simple_test.r1.eth[3].mac packetDropNotAddressedToUs:count 0
attr interpolationmode none
attr source packetDropReasonIsNotAddressedToUs(packetDropped)
attr title "packet drop: not addressed to us, count"
scalar Simple_test.r1.eth[3].mac packetDropNotAddressedToUs:sum(packetBytes) 0
attr interpolationmode none
attr source packetDropReasonIsNotAddressedToUs(packetDropped)
attr title "packet drop: not addressed to us, sum(packetBytes)"
scalar Simple_test.r1.eth[3].encap pauseSent:count 4
attr title "pause sent, count"
scalar Simple_test.r1.eth[3].encap pauseSent:sum 20
attr title "pause sent, sum"
scalar Simple_test.r1.eth[3].encap decapPk:count 8
attr interpolationmode none
attr source decapPk
attr title "packets decapsulated, count"
scalar Simple_test.r1.eth[3].encap decapPk:sum(packetBytes) 368
attr interpolationmode none
attr source decapPk
attr title "packets decapsulated, sum(packetBytes)"
scalar Simple_test.r1.eth[3].encap encapPk:count 1
attr interpolationmode none
attr source encapPk
attr title "packets encapsulated, count"
scalar Simple_test.r1.eth[3].encap encapPk:sum(packetBytes) 28
attr interpolationmode none
attr source encapPk
attr title "packets encapsulated, sum(packetBytes)"
scalar Simple_test.r1.eth[4].mac.queue packetPopped:count 5
attr interpolationmode none
attr title "packet popped, count"
scalar Simple_test.r1.eth[4].mac.queue packetPopped:sum(packetBytes) 320
attr interpolationmode none
attr title "packet popped, sum(packetBytes)"
statistic Simple_test.r1.eth[4].mac.queue queueingTime:histogram
field count 5
field mean 1.344e-05
field stddev 3.0052753617597e-05
field min 0
field max 6.72e-05
field sum 6.72e-05
field sqrsum 4.51584e-09
attr interpolationmode none
attr source queueingTime(packetPopped)
attr title "queueing times, histogram"
attr unit s
bin	-inf	0
bin	0	4
bin	1e-06	0
bin	2e-06	0
bin	3e-06	0
bin	4e-06	0
bin	5e-06	0
bin	6e-06	0
bin	7e-06	0
bin	8e-06	0
bin	9e-06	0
bin	1e-05	0
bin	1.1e-05	0
bin	1.2e-05	0
bin	1.3e-05	0
bin	1.4e-05	0
bin	1.5e-05	0
bin	1.6e-05	0
bin	1.7e-05	0
bin	1.8e-05	0
bin	1.9e-05	0
bin	2e-05	0
bin	2.1e-05	0
bin	2.2e-05	0
bin	2.3e-05	0
bin	2.4e-05	0
bin	2.5e-05	0
bin	2.6e-05	0
bin	2.7e-05	0
bin	2.8e-05	0
bin	2.9e-05	0
bin	3e-05	0
bin	3.1e-05	0
bin	3.2e-05	0
bin	3.3e-05	0
bin	3.4e-05	0
bin	3.5e-05	0
bin	3.6e-05	0
bin	3.7e-05	0
bin	3.8e-05	0
bin	3.9e-05	0
bin	4e-05	0
bin	4.1e-05	0
bin	4.2e-05	0
bin	4.3e-05	0
bin	4.4e-05	0
bin	4.5e-05	0
bin	4.6e-05	0
bin	4.7e-05	0
bin	4.8e-05	0
bin	4.9e-05	0
bin	5e-05	0
bin	5.1e-05	0
bin	5.2e-05	0
bin	5.3e-05	0
bin	5.4e-05	0
bin	5.5e-05	0
bin	5.6e-05	0
bin	5.7e-05	0
bin	5.8e-05	0
bin	5.9e-05	0
bin	6e-05	0
bin	6.1e-05	0
bin	6.2e-05	0
bin	6.3e-05	0
bin	6.4e-05	0
bin	6.5e-05	0
bin	6.6e-05	0
bin	6.7e-05	1
bin	6.8e-05	0
bin	6.9e-05	0
bin	7e-05	0
bin	7.1e-05	0
bin	7.2e-05	0
bin	7.3e-05	0
bin	7.4e-05	0
bin	7.5e-05	0
bin	7.6e-05	0
bin	7.7e-05	0
bin	7.8e-05	0
bin	7.9e-05	0
bin	8e-05	0
bin	8.1e-05	0
bin	8.2e-05	0
bin	8.3e-05	0
bin	8.4e-05	0
scalar Simple_test.r1.eth[4].mac.queue queueLength:max 1
attr interpolationmode sample-hold
attr source "count(packetPushed) - count(packetPopped) - count(packetRemoved) - count(packetDropped)"
attr title "queue length, max"
scalar Simple_test.r1.eth[4].mac.queue queueLength:timeavg 2.8000067316829e-06
attr interpolationmode sample-hold
attr source "count(packetPushed) - count(packetPopped) - count(packetRemoved) - count(packetDropped)"
attr title "queue length, timeavg"
scalar Simple_test.r1.eth[4].mac.queue packetPushed:count 5
attr interpolationmode none
attr title "packet pushed, count"
scalar Simple_test.r1.eth[4].mac.queue packetPushed:sum(packetBytes) 320
attr interpolationmode none
attr title "packet pushed, sum(packetBytes)"
scalar Simple_test.r1.eth[4].mac.queue packetDropQueueOverflow:count 0
attr interpolationmode none
attr source packetDropReasonIsQueueOverflow(packetDropped)
attr title "packet drops: queue overflow, count"
scalar Simple_test.r1.eth[4].mac.queue packetDropQueueOverflow:sum(packetBytes) 0
attr interpolationmode none
attr source packetDropReasonIsQueueOverflow(packetDropped)
attr title "packet drops: queue overflow, sum(packetBytes)"
scalar Simple_test.r1.eth[4].mac.queue packetRemoved:count 0
attr interpolationmode none
attr title "packets removed, count"
scalar Simple_test.r1.eth[4].mac.queue packetRemoved:sum(packetBytes) 0
attr interpolationmode none
attr title "packets removed, sum(packetBytes)"
scalar Simple_test.r1.eth[4].mac "simulated time" 25
scalar Simple_test.r1.eth[4].mac full-duplex 1
scalar Simple_test.r1.eth[4].mac "frames/sec sent" 0.2
scalar Simple_test.r1.eth[4].mac "frames/sec rcvd" 0.4
scalar Simple_test.r1.eth[4].mac "bits/sec sent" 102.4
scalar Simple_test.r1.eth[4].mac "bits/sec rcvd" 204.8
scalar Simple_test.r1.eth[4].mac "rx channel idle (%)" 99.997696
scalar Simple_test.r1.eth[4].mac "rx channel utilization (%)" 0.002304
scalar Simple_test.r1.eth[4].mac "rx channel collision (%)" 0
scalar Simple_test.r1.eth[4].mac collisions 0
scalar Simple_test.r1.eth[4].mac backoffs 0
scalar Simple_test.r1.eth[4].mac rxPausePkUnits:count 0
attr interpolationmode none
attr title "pause units received, count"
scalar Simple_test.r1.eth[4].mac rxPausePkUnits:sum 0
attr interpolationmode none
attr title "pause units received, sum"
scalar Simple_test.r1.eth[4].mac txPausePkUnits:count 4
attr interpolationmode none
attr title "pause units sent, count"
scalar Simple_test.r1.eth[4].mac txPausePkUnits:sum 20
attr interpolationmode none
attr title "pause units sent, sum"
scalar Simple_test.r1.eth[4].mac rxPkOk:count 10
attr interpolationmode none
attr source rxPkOk
attr title "packets received OK, count"
scalar Simple_test.r1.eth[4].mac rxPkOk:sum(packetBytes) 640
attr interpolationmode none
attr source rxPkOk
attr title "packets received OK, sum(packetBytes)"
scalar Simple_test.r1.eth[4].mac backoffSlotsGenerated:count 0
attr interpolationmode none
attr title "backoff, count"
scalar Simple_test.r1.eth[4].mac collision:count 0
attr interpolationmode none
attr title "collision, count"
scalar Simple_test.r1.eth[4].mac txPk:count 5
attr interpolationmode none
attr source packetSentToLower
attr title "packets transmitted, count"
scalar Simple_test.r1.eth[4].mac txPk:sum(packetBytes) 320
attr interpolationmode none
attr source packetSentToLower
attr title "packets transmitted, sum(packetBytes)"
scalar Simple_test.r1.eth[4].mac packetReceivedFromUpper:count 5
attr interpolationmode none
attr source packetReceivedFromUpper
attr title "packet bytes from higher layer, count"
scalar Simple_test.r1.eth[4].mac packetReceivedFromUpper:sum(packetBytes) 134
attr interpolationmode none
attr source packetReceivedFromUpper
attr title "packet bytes from higher layer, sum(packetBytes)"
scalar Simple_test.r1.eth[4].mac passedUpPk:count 10
attr interpolationmode none
attr source packetSentToUpper
attr title "packets passed to higher layer, count"
scalar Simple_test.r1.eth[4].mac passedUpPk:sum(packetBytes) 640
attr interpolationmode none
attr source packetSentToUpper
attr title "packets passed to higher layer, sum(packetBytes)"
scalar Simple_test.r1.eth[4].mac packetDropIncorrectlyReceived:count 0
attr interpolationmode none
attr source packetDropReasonIsIncorrectlyReceived(packetDropped)
attr title "packet drop: incorrectly received, count"
scalar Simple_test.r1.eth[4].mac packetDropIncorrectlyReceived:sum(packetBytes) 0
attr interpolationmode none
attr source packetDropReasonIsIncorrectlyReceived(packetDropped)
attr title "packet drop: incorrectly received, sum(packetBytes)"
scalar Simple_test.r1.eth[4].mac packetDropInterfaceDown:count 0
attr interpolationmode none
attr source packetDropReasonIsInterfaceDown(packetDropped)
attr title "packet drop: interface down, count"
scalar Simple_test.r1.eth[4].mac packetDropInterfaceDown:sum(packetBytes) 0
attr interpolationmode none
attr source packetDropReasonIsInterfaceDown(packetDropped)
attr title "packet drop: interface down, sum(packetBytes)"
scalar Simple_test.r1.eth[4].mac packetDropNotAddressedToUs:count 0
attr interpolationmode none
attr source packetDropReasonIsNotAddressedToUs(packetDropped)
attr title "packet drop: not addressed to us, count"
scalar Simple_test.r1.eth[4].mac packetDropNotAddressedToUs:sum(packetBytes) 0
attr interpolationmode none
attr source packetDropReasonIsNotAddressedToUs(packetDropped)
attr title "packet drop: not addressed to us, sum(packetBytes)"
scalar Simple_test.r1.eth[4].encap pauseSent:count 4
attr title "pause sent, count"
scalar Simple_test.r1.eth[4].encap pauseSent:sum 20
attr title "pause sent, sum"
scalar Simple_test.r1.eth[4].encap decapPk:count 10
attr interpolationmode none
attr source decapPk
attr title "packets decapsulated, count"
scalar Simple_test.r1.eth[4].encap decapPk:sum(packetBytes) 460
attr interpolationmode none
attr source decapPk
attr title "packets decapsulated, sum(packetBytes)"
scalar Simple_test.r1.eth[4].encap encapPk:count 1
attr interpolationmode none
attr source encapPk
attr title "packets encapsulated, count"
scalar Simple_test.r1.eth[4].encap encapPk:sum(packetBytes) 28
attr interpolationmode none
attr source encapPk
attr title "packets encapsulated, sum(packetBytes)"
scalar Simple_test.r1.eth[5].mac.queue packetPopped:count 32
attr interpolationmode none
attr title "packet popped, count"
scalar Simple_test.r1.eth[5].mac.queue packetPopped:sum(packetBytes) 2048
attr interpolationmode none
attr title "packet popped, sum(packetBytes)"
statistic Simple_test.r1.eth[5].mac.queue queueingTime:histogram
field count 32
field mean 0.0001160625
field stddev 0.00015643229958943
field min 0
field max 0.000672
field sum 0.003714
field sqrsum 1.18965912e-06
attr interpolationmode none
attr source queueingTime(packetPopped)
attr title "queueing times, histogram"
attr unit s
bin	-inf	0
bin	0	10
bin	1e-05	0
bin	2e-05	0
bin	3e-05	0
bin	4e-05	0
bin	5e-05	6
bin	6e-05	2
bin	7e-05	0
bin	8e-05	0
bin	9e-05	0
bin	0.0001	0
bin	0.00011	0
bin	0.00012	4
bin	0.00013	3
bin	0.00014	0
bin	0.00015	0
bin	0.00016	0
bin	0.00017	0
bin	0.00018	0
bin	0.00019	2
bin	0.0002	2
bin	0.00021	0
bin	0.00022	0
bin	0.00023	0
bin	0.00024	0
bin	0.00025	0
bin	0.00026	1
bin	0.00027	0
bin	0.00028	0
bin	0.00029	0
bin	0.0003	0
bin	0.00031	0
bin	0.00032	0
bin	0.00033	0
bin	0.00034	0
bin	0.00035	0
bin	0.00036	0
bin	0.00037	0
bin	0.00038	0
bin	0.00039	0
bin	0.0004	0
bin	0.00041	0
bin	0.00042	0
bin	0.00043	0
bin	0.00044	0
bin	0.00045	0
bin	0.00046	0
bin	0.00047	0
bin	0.00048	0
bin	0.00049	0
bin	0.0005	0
bin	0.00051	0
bin	0.00052	0
bin	0.00053	0
bin	0.00054	0
bin	0.00055	0
bin	0.00056	0
bin	0.00057	0
bin	0.00058	0
bin	0.00059	0
bin	0.0006	1
bin	0.00061	0
bin	0.00062	0
bin	0.00063	0
bin	0.00064	0
bin	0.00065	0
bin	0.00066	0
bin	0.00067	1
bin	0.00068	0
bin	0.00069	0
bin	0.0007	0
bin	0.00071	0
bin	0.00072	0
bin	0.00073	0
bin	0.00074	0
bin	0.00075	0
bin	0.00076	0
bin	0.00077	0
bin	0.00078	0
bin	0.00079	0
bin	0.0008	0
bin	0.00081	0
bin	0.00082	0
bin	0.00083	0
bin	0.00084	0
scalar Simple_test.r1.eth[5].mac.queue queueLength:max 6
attr interpolationmode sample-hold
attr source "count(packetPushed) - count(packetPopped) - count(packetRemoved) - count(packetDropped)"
attr title "queue length, max"
scalar Simple_test.r1.eth[5].mac.queue queueLength:timeavg 0.00015475123994431
attr interpolationmode sample-hold
attr source "count(packetPushed) - count(packetPopped) - count(packetRemoved) - count(packetDropped)"
attr title "queue length, timeavg"
scalar Simple_test.r1.eth[5].mac.queue packetPushed:count 32
attr interpolationmode none
attr title "packet pushed, count"
scalar Simple_test.r1.eth[5].mac.queue packetPushed:sum(packetBytes) 2048
attr interpolationmode none
attr title "packet pushed, sum(packetBytes)"
scalar Simple_test.r1.eth[5].mac.queue packetDropQueueOverflow:count 0
attr interpolationmode none
attr source packetDropReasonIsQueueOverflow(packetDropped)
attr title "packet drops: queue overflow, count"
scalar Simple_test.r1.eth[5].mac.queue packetDropQueueOverflow:sum(packetBytes) 0
attr interpolationmode none
attr source packetDropReasonIsQueueOverflow(packetDropped)
attr title "packet drops: queue overflow, sum(packetBytes)"
scalar Simple_test.r1.eth[5].mac.queue packetRemoved:count 0
attr interpolationmode none
attr title "packets removed, count"
scalar Simple_test.r1.eth[5].mac.queue packetRemoved:sum(packetBytes) 0
attr interpolationmode none
attr title "packets removed, sum(packetBytes)"
scalar Simple_test.r1.eth[5].mac "simulated time" 25
scalar Simple_test.r1.eth[5].mac full-duplex 1
scalar Simple_test.r1.eth[5].mac "frames/sec sent" 1.28
scalar Simple_test.r1.eth[5].mac "frames/sec rcvd" 0.16
scalar Simple_test.r1.eth[5].mac "bits/sec sent" 655.36
scalar Simple_test.r1.eth[5].mac "bits/sec rcvd" 81.92
scalar Simple_test.r1.eth[5].mac "rx channel idle (%)" 99.9990784
scalar Simple_test.r1.eth[5].mac "rx channel utilization (%)" 0.0009216
scalar Simple_test.r1.eth[5].mac "rx channel collision (%)" 0
scalar Simple_test.r1.eth[5].mac collisions 0
scalar Simple_test.r1.eth[5].mac backoffs 0
scalar Simple_test.r1.eth[5].mac rxPausePkUnits:count 0
attr interpolationmode none
attr title "pause units received, count"
scalar Simple_test.r1.eth[5].mac rxPausePkUnits:sum 0
attr interpolationmode none
attr title "pause units received, sum"
scalar Simple_test.r1.eth[5].mac txPausePkUnits:count 6
attr interpolationmode none
attr title "pause units sent, count"
scalar Simple_test.r1.eth[5].mac txPausePkUnits:sum 30
attr interpolationmode none
attr title "pause units sent, sum"
scalar Simple_test.r1.eth[5].mac rxPkOk:count 4
attr interpolationmode none
attr source rxPkOk
attr title "packets received OK, count"
scalar Simple_test.r1.eth[5].mac rxPkOk:sum(packetBytes) 256
attr interpolationmode none
attr source rxPkOk
attr title "packets received OK, sum(packetBytes)"
scalar Simple_test.r1.eth[5].mac backoffSlotsGenerated:count 0
attr interpolationmode none
attr title "backoff, count"
scalar Simple_test.r1.eth[5].mac collision:count 0
attr interpolationmode none
attr title "collision, count"
scalar Simple_test.r1.eth[5].mac txPk:count 32
attr interpolationmode none
attr source packetSentToLower
attr title "packets transmitted, count"
scalar Simple_test.r1.eth[5].mac txPk:sum(packetBytes) 2048
attr interpolationmode none
attr source packetSentToLower
attr title "packets transmitted, sum(packetBytes)"
scalar Simple_test.r1.eth[5].mac packetReceivedFromUpper:count 32
attr interpolationmode none
attr source packetReceivedFromUpper
attr title "packet bytes from higher layer, count"
scalar Simple_test.r1.eth[5].mac packetReceivedFromUpper:sum(packetBytes) 1578
attr interpolationmode none
attr source packetReceivedFromUpper
attr title "packet bytes from higher layer, sum(packetBytes)"
scalar Simple_test.r1.eth[5].mac passedUpPk:count 4
attr interpolationmode none
attr source packetSentToUpper
attr title "packets passed to higher layer, count"
scalar Simple_test.r1.eth[5].mac passedUpPk:sum(packetBytes) 256
attr interpolationmode none
attr source packetSentToUpper
attr title "packets passed to higher layer, sum(packetBytes)"
scalar Simple_test.r1.eth[5].mac packetDropIncorrectlyReceived:count 0
attr interpolationmode none
attr source packetDropReasonIsIncorrectlyReceived(packetDropped)
attr title "packet drop: incorrectly received, count"
scalar Simple_test.r1.eth[5].mac packetDropIncorrectlyReceived:sum(packetBytes) 0
attr interpolationmode none
attr source packetDropReasonIsIncorrectlyReceived(packetDropped)
attr title "packet drop: incorrectly received, sum(packetBytes)"
scalar Simple_test.r1.eth[5].mac packetDropInterfaceDown:count 0
attr interpolationmode none
attr source packetDropReasonIsInterfaceDown(packetDropped)
attr title "packet drop: interface down, count"
scalar Simple_test.r1.eth[5].mac packetDropInterfaceDown:sum(packetBytes) 0
attr interpolationmode none
attr source packetDropReasonIsInterfaceDown(packetDropped)
attr title "packet drop: interface down, sum(packetBytes)"
scalar Simple_test.r1.eth[5].mac packetDropNotAddressedToUs:count 0
attr interpolationmode none
attr source packetDropReasonIsNotAddressedToUs(packetDropped)
attr title "packet drop: not addressed to us, count"
scalar Simple_test.r1.eth[5].mac packetDropNotAddressedToUs:sum(packetBytes) 0
attr interpolationmode none
attr source packetDropReasonIsNotAddressedToUs(packetDropped)
attr title "packet drop: not addressed to us, sum(packetBytes)"
scalar Simple_test.r1.eth[5].encap pauseSent:count 6
attr title "pause sent, count"
scalar Simple_test.r1.eth[5].encap pauseSent:sum 30
attr title "pause sent, sum"
scalar Simple_test.r1.eth[5].encap decapPk:count 4
attr interpolationmode none
attr source decapPk
attr title "packets decapsulated, count"
scalar Simple_test.r1.eth[5].encap decapPk:sum(packetBytes) 184
attr interpolationmode none
attr source decapPk
attr title "packets decapsulated, sum(packetBytes)"
scalar Simple_test.r1.eth[5].encap encapPk:count 26
attr interpolationmode none
attr source encapPk
attr title "packets encapsulated, count"
scalar Simple_test.r1.eth[5].encap encapPk:sum(packetBytes) 978
attr interpolationmode none
attr source encapPk
attr title "packets encapsulated, sum(packetBytes)"
scalar Simple_test.r1.ipv4.ip packetDropAddressResolutionFailed:count 0
attr interpolationmode none
attr source packetDropReasonIsAddressResolutionFailed(packetDropped)
attr title "packet drop: address resolution failed, count"
scalar Simple_test.r1.ipv4.ip packetDropAddressResolutionFailed:sum(packetBytes) 0
attr interpolationmode none
attr source packetDropReasonIsAddressResolutionFailed(packetDropped)
attr title "packet drop: address resolution failed, sum(packetBytes)"
scalar Simple_test.r1.ipv4.ip packetDropHopLimitReached:count 0
attr interpolationmode none
attr source packetDropReasonIsHopLimitReached(packetDropped)
attr title "packet drop: hop limit reached, count"
scalar Simple_test.r1.ipv4.ip packetDropHopLimitReached:sum(packetBytes) 0
attr interpolationmode none
attr source packetDropReasonIsHopLimitReached(packetDropped)
attr title "packet drop: hop limit reached, sum(packetBytes)"
scalar Simple_test.r1.ipv4.ip packetDropForwardingDisabled:count 0
attr interpolationmode none
attr source packetDropReasonIsForwardingDisabled(packetDropped)
attr title "packet drop: forwarding disabled, count"
scalar Simple_test.r1.ipv4.ip packetDropForwardingDisabled:sum(packetBytes) 0
attr interpolationmode none
attr source packetDropReasonIsForwardingDisabled(packetDropped)
attr title "packet drop: forwarding disabled, sum(packetBytes)"
scalar Simple_test.r1.ipv4.ip packetDropNoInterfaceFound:count 0
attr interpolationmode none
attr source packetDropReasonIsNoInterfaceFound(packetDropped)
attr title "packet drop: no interface found, count"
scalar Simple_test.r1.ipv4.ip packetDropNoInterfaceFound:sum(packetBytes) 0
attr interpolationmode none
attr source packetDropReasonIsNoInterfaceFound(packetDropped)
attr title "packet drop: no interface found, sum(packetBytes)"
scalar Simple_test.r1.ipv4.ip packetDropNoRouteFound:count 0
attr interpolationmode none
attr source packetDropReasonIsNoRouteFound(packetDropped)
attr title "packet drop: no route found, count"
scalar Simple_test.r1.ipv4.ip packetDropNoRouteFound:sum(packetBytes) 0
attr interpolationmode none
attr source packetDropReasonIsNoRouteFound(packetDropped)
attr title "packet drop: no route found, sum(packetBytes)"
scalar Simple_test.r1.ipv4.ip packetDropUndefined:count 0
attr interpolationmode none
attr source packetDropReasonIsUndefined(packetDropped)
attr title "packet drop: undefined, count"
scalar Simple_test.r1.ipv4.ip packetDropUndefined:sum(packetBytes) 0
attr interpolationmode none
attr source packetDropReasonIsUndefined(packetDropped)
attr title "packet drop: undefined, sum(packetBytes)"
scalar Simple_test.r1.ipv4.arp arpResolutionFailed:count 0
attr title "ARP failed resolutions, count"
scalar Simple_test.r1.ipv4.arp arpResolutionCompleted:count 6
attr title "ARP completed resolutions, count"
scalar Simple_test.r1.ipv4.arp arpResolutionInitiated:count 1
attr title "ARP initiated resolutions, count"
scalar Simple_test.r1.ipv4.arp arpReplySent:count 5
attr source arpReplySent
attr title "ARP replies sent, count"
scalar Simple_test.r1.ipv4.arp arpReplySent:sum(packetBytes) 140
attr source arpReplySent
attr title "ARP replies sent, sum(packetBytes)"
scalar Simple_test.r1.ipv4.arp arpRequestSent:count 1
attr source arpRequestSent
attr title "ARP request sent, count"
scalar Simple_test.r1.ipv4.arp arpRequestSent:sum(packetBytes) 28
attr source arpRequestSent
attr title "ARP request sent, sum(packetBytes)"
scalar Simple_test.cli[0].lo[0].lo rcvdPkFromHl:count 0
attr interpolationmode none
attr source packetReceivedFromUpper
attr title "packets received from higher layer, count"
scalar Simple_test.cli[0].lo[0].lo rcvdPkFromHl:sum(packetBytes) 0
attr interpolationmode none
attr source packetReceivedFromUpper
attr title "packets received from higher layer, sum(packetBytes)"
scalar Simple_test.cli[0].lo[0].lo passedUpPk:count 0
attr interpolationmode none
attr source packetSentToUpper
attr title "packets passed to higher layer, count"
scalar Simple_test.cli[0].lo[0].lo passedUpPk:sum(packetBytes) 0
attr interpolationmode none
attr source packetSentToUpper
attr title "packets passed to higher layer, sum(packetBytes)"
scalar Simple_test.cli[0].eth[0].mac.queue packetPopped:count 3
attr interpolationmode none
attr title "packet popped, count"
scalar Simple_test.cli[0].eth[0].mac.queue packetPopped:sum(packetBytes) 192
attr interpolationmode none
attr title "packet popped, sum(packetBytes)"
statistic Simple_test.cli[0].eth[0].mac.queue queueingTime:histogram
field count 3
field mean 0
field stddev 0
field min 0
field max 0
field sum 0
field sqrsum 0
attr interpolationmode none
attr source queueingTime(packetPopped)
attr title "queueing times, histogram"
attr unit s
bin	-inf	0
bin	-0.5	0
bin	-0.48	0
bin	-0.46	0
bin	-0.44	0
bin	-0.42	0
bin	-0.4	0
bin	-0.38	0
bin	-0.36	0
bin	-0.34	0
bin	-0.32	0
bin	-0.3	0
bin	-0.28	0
bin	-0.26	0
bin	-0.24	0
bin	-0.22	0
bin	-0.2	0
bin	-0.18	0
bin	-0.16	0
bin	-0.14	0
bin	-0.12	0
bin	-0.1	0
bin	-0.08	0
bin	-0.06	0
bin	-0.04	0
bin	-0.02	0
bin	0	3
bin	0.02	0
bin	0.04	0
bin	0.06	0
bin	0.08	0
bin	0.1	0
bin	0.12	0
bin	0.14	0
bin	0.16	0
bin	0.18	0
bin	0.2	0
bin	0.22	0
bin	0.24	0
bin	0.26	0
bin	0.28	0
bin	0.3	0
bin	0.32	0
bin	0.34	0
bin	0.36	0
bin	0.38	0
bin	0.4	0
bin	0.42	0
bin	0.44	0
bin	0.46	0
bin	0.48	0
bin	0.5	0
scalar Simple_test.cli[0].eth[0].mac.queue queueLength:max 22
attr interpolationmode sample-hold
attr source "count(packetPushed) - count(packetPopped) - count(packetRemoved) - count(packetDropped)"
attr title "queue length, max"
scalar Simple_test.cli[0].eth[0].mac.queue queueLength:timeavg 10.541666666667
attr interpolationmode sample-hold
attr source "count(packetPushed) - count(packetPopped) - count(packetRemoved) - count(packetDropped)"
attr title "queue length, timeavg"
scalar Simple_test.cli[0].eth[0].mac.queue packetPushed:count 25
attr interpolationmode none
attr title "packet pushed, count"
scalar Simple_test.cli[0].eth[0].mac.queue packetPushed:sum(packetBytes) 1600
attr interpolationmode none
attr title "packet pushed, sum(packetBytes)"
scalar Simple_test.cli[0].eth[0].mac.queue packetDropQueueOverflow:count 0
attr interpolationmode none
attr source packetDropReasonIsQueueOverflow(packetDropped)
attr title "packet drops: queue overflow, count"
scalar Simple_test.cli[0].eth[0].mac.queue packetDropQueueOverflow:sum(packetBytes) 0
attr interpolationmode none
attr source packetDropReasonIsQueueOverflow(packetDropped)
attr title "packet drops: queue overflow, sum(packetBytes)"
scalar Simple_test.cli[0].eth[0].mac.queue packetRemoved:count 0
attr interpolationmode none
attr title "packets removed, count"
scalar Simple_test.cli[0].eth[0].mac.queue packetRemoved:sum(packetBytes) 0
attr interpolationmode none
attr title "packets removed, sum(packetBytes)"
scalar Simple_test.cli[0].eth[0].mac "simulated time" 25
scalar Simple_test.cli[0].eth[0].mac full-duplex 1
scalar Simple_test.cli[0].eth[0].mac "frames/sec sent" 0.08
scalar Simple_test.cli[0].eth[0].mac "frames/sec rcvd" 0.08
scalar Simple_test.cli[0].eth[0].mac "bits/sec sent" 40.96
scalar Simple_test.cli[0].eth[0].mac "bits/sec rcvd" 40.96
scalar Simple_test.cli[0].eth[0].mac "rx channel idle (%)" 99.9990784
scalar Simple_test.cli[0].eth[0].mac "rx channel utilization (%)" 0.0009216
scalar Simple_test.cli[0].eth[0].mac "rx channel collision (%)" 0
scalar Simple_test.cli[0].eth[0].mac collisions 0
scalar Simple_test.cli[0].eth[0].mac backoffs 0
scalar Simple_test.cli[0].eth[0].mac rxPausePkUnits:count 2
attr interpolationmode none
attr title "pause units received, count"
scalar Simple_test.cli[0].eth[0].mac rxPausePkUnits:sum 10
attr interpolationmode none
attr title "pause units received, sum"
scalar Simple_test.cli[0].eth[0].mac txPausePkUnits:count 0
attr interpolationmode none
attr title "pause units sent, count"
scalar Simple_test.cli[0].eth[0].mac txPausePkUnits:sum 0
attr interpolationmode none
attr title "pause units sent, sum"
scalar Simple_test.cli[0].eth[0].mac rxPkOk:count 2
attr interpolationmode none
attr source rxPkOk
attr title "packets received OK, count"
scalar Simple_test.cli[0].eth[0].mac rxPkOk:sum(packetBytes) 128
attr interpolationmode none
attr source rxPkOk
attr title "packets received OK, sum(packetBytes)"
scalar Simple_test.cli[0].eth[0].mac backoffSlotsGenerated:count 0
attr interpolationmode none
attr title "backoff, count"
scalar Simple_test.cli[0].eth[0].mac collision:count 0
attr interpolationmode none
attr title "collision, count"
scalar Simple_test.cli[0].eth[0].mac txPk:count 2
attr interpolationmode none
attr source packetSentToLower
attr title "packets transmitted, count"
scalar Simple_test.cli[0].eth[0].mac txPk:sum(packetBytes) 128
attr interpolationmode none
attr source packetSentToLower
attr title "packets transmitted, sum(packetBytes)"
scalar Simple_test.cli[0].eth[0].mac packetReceivedFromUpper:count 25
attr interpolationmode none
attr source packetReceivedFromUpper
attr title "packet bytes from higher layer, count"
scalar Simple_test.cli[0].eth[0].mac packetReceivedFromUpper:sum(packetBytes) 1390
attr interpolationmode none
attr source packetReceivedFromUpper
attr title "packet bytes from higher layer, sum(packetBytes)"
scalar Simple_test.cli[0].eth[0].mac passedUpPk:count 2
attr interpolationmode none
attr source packetSentToUpper
attr title "packets passed to higher layer, count"
scalar Simple_test.cli[0].eth[0].mac passedUpPk:sum(packetBytes) 128
attr interpolationmode none
attr source packetSentToUpper
attr title "packets passed to higher layer, sum(packetBytes)"
scalar Simple_test.cli[0].eth[0].mac packetDropIncorrectlyReceived:count 0
attr interpolationmode none
attr source packetDropReasonIsIncorrectlyReceived(packetDropped)
attr title "packet drop: incorrectly received, count"
scalar Simple_test.cli[0].eth[0].mac packetDropIncorrectlyReceived:sum(packetBytes) 0
attr interpolationmode none
attr source packetDropReasonIsIncorrectlyReceived(packetDropped)
attr title "packet drop: incorrectly received, sum(packetBytes)"
scalar Simple_test.cli[0].eth[0].mac packetDropInterfaceDown:count 0
attr interpolationmode none
attr source packetDropReasonIsInterfaceDown(packetDropped)
attr title "packet drop: interface down, count"
scalar Simple_test.cli[0].eth[0].mac packetDropInterfaceDown:sum(packetBytes) 0
attr interpolationmode none
attr source packetDropReasonIsInterfaceDown(packetDropped)
attr title "packet drop: interface down, sum(packetBytes)"
scalar Simple_test.cli[0].eth[0].mac packetDropNotAddressedToUs:count 0
attr interpolationmode none
attr source packetDropReasonIsNotAddressedToUs(packetDropped)
attr title "packet drop: not addressed to us, count"
scalar Simple_test.cli[0].eth[0].mac packetDropNotAddressedToUs:sum(packetBytes) 0
attr interpolationmode none
attr source packetDropReasonIsNotAddressedToUs(packetDropped)
attr title "packet drop: not addressed to us, sum(packetBytes)"
scalar Simple_test.cli[0].eth[0].encap pauseSent:count 0
attr title "pause sent, count"
scalar Simple_test.cli[0].eth[0].encap pauseSent:sum 0
attr title "pause sent, sum"
scalar Simple_test.cli[0].eth[0].encap decapPk:count 2
attr interpolationmode none
attr source decapPk
attr title "packets decapsulated, count"
scalar Simple_test.cli[0].eth[0].encap decapPk:sum(packetBytes) 92
attr interpolationmode none
attr source decapPk
attr title "packets decapsulated, sum(packetBytes)"
scalar Simple_test.cli[0].eth[0].encap encapPk:count 25
attr interpolationmode none
attr source encapPk
attr title "packets encapsulated, count"
scalar Simple_test.cli[0].eth[0].encap encapPk:sum(packetBytes) 940
attr interpolationmode none
attr source encapPk
attr title "packets encapsulated, sum(packetBytes)"
scalar Simple_test.cli[0].ipv4.ip packetDropAddressResolutionFailed:count 0
attr interpolationmode none
attr source packetDropReasonIsAddressResolutionFailed(packetDropped)
attr title "packet drop: address resolution failed, count"
scalar Simple_test.cli[0].ipv4.ip packetDropAddressResolutionFailed:sum(packetBytes) 0
attr interpolationmode none
attr source packetDropReasonIsAddressResolutionFailed(packetDropped)
attr title "packet drop: address resolution failed, sum(packetBytes)"
scalar Simple_test.cli[0].ipv4.ip packetDropHopLimitReached:count 0
attr interpolationmode none
attr source packetDropReasonIsHopLimitReached(packetDropped)
attr title "packet drop: hop limit reached, count"
scalar Simple_test.cli[0].ipv4.ip packetDropHopLimitReached:sum(packetBytes) 0
attr interpolationmode none
attr source packetDropReasonIsHopLimitReached(packetDropped)
attr title "packet drop: hop limit reached, sum(packetBytes)"
scalar Simple_test.cli[0].ipv4.ip packetDropForwardingDisabled:count 0
attr interpolationmode none
attr source packetDropReasonIsForwardingDisabled(packetDropped)
attr title "packet drop: forwarding disabled, count"
scalar Simple_test.cli[0].ipv4.ip packetDropForwardingDisabled:sum(packetBytes) 0
attr interpolationmode none
attr source packetDropReasonIsForwardingDisabled(packetDropped)
attr title "packet drop: forwarding disabled, sum(packetBytes)"
scalar Simple_test.cli[0].ipv4.ip packetDropNoInterfaceFound:count 0
attr interpolationmode none
attr source packetDropReasonIsNoInterfaceFound(packetDropped)
attr title "packet drop: no interface found, count"
scalar Simple_test.cli[0].ipv4.ip packetDropNoInterfaceFound:sum(packetBytes) 0
attr interpolationmode none
attr source packetDropReasonIsNoInterfaceFound(packetDropped)
attr title "packet drop: no interface found, sum(packetBytes)"
scalar Simple_test.cli[0].ipv4.ip packetDropNoRouteFound:count 0
attr interpolationmode none
attr source packetDropReasonIsNoRouteFound(packetDropped)
attr title "packet drop: no route found, count"
scalar Simple_test.cli[0].ipv4.ip packetDropNoRouteFound:sum(packetBytes) 0
attr interpolationmode none
attr source packetDropReasonIsNoRouteFound(packetDropped)
attr title "packet drop: no route found, sum(packetBytes)"
scalar Simple_test.cli[0].ipv4.ip packetDropUndefined:count 0
attr interpolationmode none
attr source packetDropReasonIsUndefined(packetDropped)
attr title "packet drop: undefined, count"
scalar Simple_test.cli[0].ipv4.ip packetDropUndefined:sum(packetBytes) 0
attr interpolationmode none
attr source packetDropReasonIsUndefined(packetDropped)
attr title "packet drop: undefined, sum(packetBytes)"
scalar Simple_test.cli[0].ipv4.arp arpResolutionFailed:count 0
attr title "ARP failed resolutions, count"
scalar Simple_test.cli[0].ipv4.arp arpResolutionCompleted:count 1
attr title "ARP completed resolutions, count"
scalar Simple_test.cli[0].ipv4.arp arpResolutionInitiated:count 1
attr title "ARP initiated resolutions, count"
scalar Simple_test.cli[0].ipv4.arp arpReplySent:count 0
attr source arpReplySent
attr title "ARP replies sent, count"
scalar Simple_test.cli[0].ipv4.arp arpReplySent:sum(packetBytes) 0
attr source arpReplySent
attr title "ARP replies sent, sum(packetBytes)"
scalar Simple_test.cli[0].ipv4.arp arpRequestSent:count 1
attr source arpRequestSent
attr title "ARP request sent, count"
scalar Simple_test.cli[0].ipv4.arp arpRequestSent:sum(packetBytes) 28
attr source arpRequestSent
attr title "ARP request sent, sum(packetBytes)"
scalar Simple_test.cli[0].udp packetReceived:count 1
attr interpolationmode none
attr source packetReceived
attr title "packets received, count"
scalar Simple_test.cli[0].udp packetReceived:sum(packetBytes) 18
attr interpolationmode none
attr source packetReceived
attr title "packets received, sum(packetBytes)"
scalar Simple_test.cli[0].udp packetSent:count 24
attr interpolationmode none
attr source packetSent
attr title "packets sent, count"
scalar Simple_test.cli[0].udp packetSent:sum(packetBytes) 432
attr interpolationmode none
attr source packetSent
attr title "packets sent, sum(packetBytes)"
scalar Simple_test.cli[0].udp passedUpPk:count 1
attr interpolationmode none
attr source packetSentToUpper
attr title "packets passed up, count"
scalar Simple_test.cli[0].udp droppedPkWrongPort:count 0
attr interpolationmode none
attr source packetDropReasonIsNoPortFound(packetDropped)
attr title "packets dropped (wrong port), count"
scalar Simple_test.cli[0].udp droppedPkBadChecksum:count 0
attr interpolationmode none
attr source packetDropReasonIsIncorrectlyReceived(packetDropped)
attr title "packets dropped (checksum error), count"
scalar Simple_test.cli[0].app[0] "packets sent" 24
scalar Simple_test.cli[0].app[0] "packets received" 1
scalar Simple_test.cli[0].app[0] packetReceived:count 1
attr interpolationmode none
attr source packetReceived
attr title "packets received, count"
scalar Simple_test.cli[0].app[0] packetReceived:sum(packetBytes) 10
attr interpolationmode none
attr source packetReceived
attr title "packets received, sum(packetBytes)"
statistic Simple_test.cli[0].app[0] rcvdPkLifetime:stats
field count 1
field mean 0.0005096
field stddev -nan
field min 0.0005096
field max 0.0005096
field sum 0.0005096
field sqrsum 2.5969216e-07
attr interpolationmode none
attr source dataAge(packetReceived)
attr title "received packet lifetime, stats"
attr unit s
scalar Simple_test.cli[0].app[0] packetSent:count 24
attr interpolationmode none
attr source packetSent
attr title "packets sent, count"
scalar Simple_test.cli[0].app[0] packetSent:sum(packetBytes) 240
attr interpolationmode none
attr source packetSent
attr title "packets sent, sum(packetBytes)"
scalar Simple_test.cli[1].lo[0].lo rcvdPkFromHl:count 0
attr interpolationmode none
attr source packetReceivedFromUpper
attr title "packets received from higher layer, count"
scalar Simple_test.cli[1].lo[0].lo rcvdPkFromHl:sum(packetBytes) 0
attr interpolationmode none
attr source packetReceivedFromUpper
attr title "packets received from higher layer, sum(packetBytes)"
scalar Simple_test.cli[1].lo[0].lo passedUpPk:count 0
attr interpolationmode none
attr source packetSentToUpper
attr title "packets passed to higher layer, count"
scalar Simple_test.cli[1].lo[0].lo passedUpPk:sum(packetBytes) 0
attr interpolationmode none
attr source packetSentToUpper
attr title "packets passed to higher layer, sum(packetBytes)"
scalar Simple_test.cli[1].eth[0].mac.queue packetPopped:count 5
attr interpolationmode none
attr title "packet popped, count"
scalar Simple_test.cli[1].eth[0].mac.queue packetPopped:sum(packetBytes) 320
attr interpolationmode none
attr title "packet popped, sum(packetBytes)"
statistic Simple_test.cli[1].eth[0].mac.queue queueingTime:histogram
field count 5
field mean 0
field stddev 0
field min 0
field max 0
field sum 0
field sqrsum 0
attr interpolationmode none
attr source queueingTime(packetPopped)
attr title "queueing times, histogram"
attr unit s
bin	-inf	0
bin	-0.5	0
bin	-0.48	0
bin	-0.46	0
bin	-0.44	0
bin	-0.42	0
bin	-0.4	0
bin	-0.38	0
bin	-0.36	0
bin	-0.34	0
bin	-0.32	0
bin	-0.3	0
bin	-0.28	0
bin	-0.26	0
bin	-0.24	0
bin	-0.22	0
bin	-0.2	0
bin	-0.18	0
bin	-0.16	0
bin	-0.14	0
bin	-0.12	0
bin	-0.1	0
bin	-0.08	0
bin	-0.06	0
bin	-0.04	0
bin	-0.02	0
bin	0	5
bin	0.02	0
bin	0.04	0
bin	0.06	0
bin	0.08	0
bin	0.1	0
bin	0.12	0
bin	0.14	0
bin	0.16	0
bin	0.18	0
bin	0.2	0
bin	0.22	0
bin	0.24	0
bin	0.26	0
bin	0.28	0
bin	0.3	0
bin	0.32	0
bin	0.34	0
bin	0.36	0
bin	0.38	0
bin	0.4	0
bin	0.42	0
bin	0.44	0
bin	0.46	0
bin	0.48	0
bin	0.5	0
scalar Simple_test.cli[1].eth[0].mac.queue queueLength:max 20
attr interpolationmode sample-hold
attr source "count(packetPushed) - count(packetPopped) - count(packetRemoved) - count(packetDropped)"
attr title "queue length, max"
scalar Simple_test.cli[1].eth[0].mac.queue queueLength:timeavg 8.75
attr interpolationmode sample-hold
attr source "count(packetPushed) - count(packetPopped) - count(packetRemoved) - count(packetDropped)"
attr title "queue length, timeavg"
scalar Simple_test.cli[1].eth[0].mac.queue packetPushed:count 25
attr interpolationmode none
attr title "packet pushed, count"
scalar Simple_test.cli[1].eth[0].mac.queue packetPushed:sum(packetBytes) 1600
attr interpolationmode none
attr title "packet pushed, sum(packetBytes)"
scalar Simple_test.cli[1].eth[0].mac.queue packetDropQueueOverflow:count 0
attr interpolationmode none
attr source packetDropReasonIsQueueOverflow(packetDropped)
attr title "packet drops: queue overflow, count"
scalar Simple_test.cli[1].eth[0].mac.queue packetDropQueueOverflow:sum(packetBytes) 0
attr interpolationmode none
attr source packetDropReasonIsQueueOverflow(packetDropped)
attr title "packet drops: queue overflow, sum(packetBytes)"
scalar Simple_test.cli[1].eth[0].mac.queue packetRemoved:count 0
attr interpolationmode none
attr title "packets removed, count"
scalar Simple_test.cli[1].eth[0].mac.queue packetRemoved:sum(packetBytes) 0
attr interpolationmode none
attr title "packets removed, sum(packetBytes)"
scalar Simple_test.cli[1].eth[0].mac "simulated time" 25
scalar Simple_test.cli[1].eth[0].mac full-duplex 1
scalar Simple_test.cli[1].eth[0].mac "frames/sec sent" 0.16
scalar Simple_test.cli[1].eth[0].mac "frames/sec rcvd" 0.08
scalar Simple_test.cli[1].eth[0].mac "bits/sec sent" 81.92
scalar Simple_test.cli[1].eth[0].mac "bits/sec rcvd" 40.96
scalar Simple_test.cli[1].eth[0].mac "rx channel idle (%)" 99.9986176
scalar Simple_test.cli[1].eth[0].mac "rx channel utilization (%)" 0.0013824
scalar Simple_test.cli[1].eth[0].mac "rx channel collision (%)" 0
scalar Simple_test.cli[1].eth[0].mac collisions 0
scalar Simple_test.cli[1].eth[0].mac backoffs 0
scalar Simple_test.cli[1].eth[0].mac rxPausePkUnits:count 4
attr interpolationmode none
attr title "pause units received, count"
scalar Simple_test.cli[1].eth[0].mac rxPausePkUnits:sum 20
attr interpolationmode none
attr title "pause units received, sum"
scalar Simple_test.cli[1].eth[0].mac txPausePkUnits:count 0
attr interpolationmode none
attr title "pause units sent, count"
scalar Simple_test.cli[1].eth[0].mac txPausePkUnits:sum 0
attr interpolationmode none
attr title "pause units sent, sum"
scalar Simple_test.cli[1].eth[0].mac rxPkOk:count 2
attr interpolationmode none
attr source rxPkOk
attr title "packets received OK, count"
scalar Simple_test.cli[1].eth[0].mac rxPkOk:sum(packetBytes) 128
attr interpolationmode none
attr source rxPkOk
attr title "packets received OK, sum(packetBytes)"
scalar Simple_test.cli[1].eth[0].mac backoffSlotsGenerated:count 0
attr interpolationmode none
attr title "backoff, count"
scalar Simple_test.cli[1].eth[0].mac collision:count 0
attr interpolationmode none
attr title "collision, count"
scalar Simple_test.cli[1].eth[0].mac txPk:count 4
attr interpolationmode none
attr source packetSentToLower
attr title "packets transmitted, count"
scalar Simple_test.cli[1].eth[0].mac txPk:sum(packetBytes) 256
attr interpolationmode none
attr source packetSentToLower
attr title "packets transmitted, sum(packetBytes)"
scalar Simple_test.cli[1].eth[0].mac packetReceivedFromUpper:count 25
attr interpolationmode none
attr source packetReceivedFromUpper
attr title "packet bytes from higher layer, count"
scalar Simple_test.cli[1].eth[0].mac packetReceivedFromUpper:sum(packetBytes) 1390
attr interpolationmode none
attr source packetReceivedFromUpper
attr title "packet bytes from higher layer, sum(packetBytes)"
scalar Simple_test.cli[1].eth[0].mac passedUpPk:count 2
attr interpolationmode none
attr source packetSentToUpper
attr title "packets passed to higher layer, count"
scalar Simple_test.cli[1].eth[0].mac passedUpPk:sum(packetBytes) 128
attr interpolationmode none
attr source packetSentToUpper
attr title "packets passed to higher layer, sum(packetBytes)"
scalar Simple_test.cli[1].eth[0].mac packetDropIncorrectlyReceived:count 0
attr interpolationmode none
attr source packetDropReasonIsIncorrectlyReceived(packetDropped)
attr title "packet drop: incorrectly received, count"
scalar Simple_test.cli[1].eth[0].mac packetDropIncorrectlyReceived:sum(packetBytes) 0
attr interpolationmode none
attr source packetDropReasonIsIncorrectlyReceived(packetDropped)
attr title "packet drop: incorrectly received, sum(packetBytes)"
scalar Simple_test.cli[1].eth[0].mac packetDropInterfaceDown:count 0
attr interpolationmode none
attr source packetDropReasonIsInterfaceDown(packetDropped)
attr title "packet drop: interface down, count"
scalar Simple_test.cli[1].eth[0].mac packetDropInterfaceDown:sum(packetBytes) 0
attr interpolationmode none
attr source packetDropReasonIsInterfaceDown(packetDropped)
attr title "packet drop: interface down, sum(packetBytes)"
scalar Simple_test.cli[1].eth[0].mac packetDropNotAddressedToUs:count 0
attr interpolationmode none
attr source packetDropReasonIsNotAddressedToUs(packetDropped)
attr title "packet drop: not addressed to us, count"
scalar Simple_test.cli[1].eth[0].mac packetDropNotAddressedToUs:sum(packetBytes) 0
attr interpolationmode none
attr source packetDropReasonIsNotAddressedToUs(packetDropped)
attr title "packet drop: not addressed to us, sum(packetBytes)"
scalar Simple_test.cli[1].eth[0].encap pauseSent:count 0
attr title "pause sent, count"
scalar Simple_test.cli[1].eth[0].encap pauseSent:sum 0
attr title "pause sent, sum"
scalar Simple_test.cli[1].eth[0].encap decapPk:count 2
attr interpolationmode none
attr source decapPk
attr title "packets decapsulated, count"
scalar Simple_test.cli[1].eth[0].encap decapPk:sum(packetBytes) 92
attr interpolationmode none
attr source decapPk
attr title "packets decapsulated, sum(packetBytes)"
scalar Simple_test.cli[1].eth[0].encap encapPk:count 25
attr interpolationmode none
attr source encapPk
attr title "packets encapsulated, count"
scalar Simple_test.cli[1].eth[0].encap encapPk:sum(packetBytes) 940
attr interpolationmode none
attr source encapPk
attr title "packets encapsulated, sum(packetBytes)"
scalar Simple_test.cli[1].ipv4.ip packetDropAddressResolutionFailed:count 0
attr interpolationmode none
attr source packetDropReasonIsAddressResolutionFailed(packetDropped)
attr title "packet drop: address resolution failed, count"
scalar Simple_test.cli[1].ipv4.ip packetDropAddressResolutionFailed:sum(packetBytes) 0
attr interpolationmode none
attr source packetDropReasonIsAddressResolutionFailed(packetDropped)
attr title "packet drop: address resolution failed, sum(packetBytes)"
scalar Simple_test.cli[1].ipv4.ip packetDropHopLimitReached:count 0
attr interpolationmode none
attr source packetDropReasonIsHopLimitReached(packetDropped)
attr title "packet drop: hop limit reached, count"
scalar Simple_test.cli[1].ipv4.ip packetDropHopLimitReached:sum(packetBytes) 0
attr interpolationmode none
attr source packetDropReasonIsHopLimitReached(packetDropped)
attr title "packet drop: hop limit reached, sum(packetBytes)"
scalar Simple_test.cli[1].ipv4.ip packetDropForwardingDisabled:count 0
attr interpolationmode none
attr source packetDropReasonIsForwardingDisabled(packetDropped)
attr title "packet drop: forwarding disabled, count"
scalar Simple_test.cli[1].ipv4.ip packetDropForwardingDisabled:sum(packetBytes) 0
attr interpolationmode none
attr source packetDropReasonIsForwardingDisabled(packetDropped)
attr title "packet drop: forwarding disabled, sum(packetBytes)"
scalar Simple_test.cli[1].ipv4.ip packetDropNoInterfaceFound:count 0
attr interpolationmode none
attr source packetDropReasonIsNoInterfaceFound(packetDropped)
attr title "packet drop: no interface found, count"
scalar Simple_test.cli[1].ipv4.ip packetDropNoInterfaceFound:sum(packetBytes) 0
attr interpolationmode none
attr source packetDropReasonIsNoInterfaceFound(packetDropped)
attr title "packet drop: no interface found, sum(packetBytes)"
scalar Simple_test.cli[1].ipv4.ip packetDropNoRouteFound:count 0
attr interpolationmode none
attr source packetDropReasonIsNoRouteFound(packetDropped)
attr title "packet drop: no route found, count"
scalar Simple_test.cli[1].ipv4.ip packetDropNoRouteFound:sum(packetBytes) 0
attr interpolationmode none
attr source packetDropReasonIsNoRouteFound(packetDropped)
attr title "packet drop: no route found, sum(packetBytes)"
scalar Simple_test.cli[1].ipv4.ip packetDropUndefined:count 0
attr interpolationmode none
attr source packetDropReasonIsUndefined(packetDropped)
attr title "packet drop: undefined, count"
scalar Simple_test.cli[1].ipv4.ip packetDropUndefined:sum(packetBytes) 0
attr interpolationmode none
attr source packetDropReasonIsUndefined(packetDropped)
attr title "packet drop: undefined, sum(packetBytes)"
scalar Simple_test.cli[1].ipv4.arp arpResolutionFailed:count 0
attr title "ARP failed resolutions, count"
scalar Simple_test.cli[1].ipv4.arp arpResolutionCompleted:count 1
attr title "ARP completed resolutions, count"
scalar Simple_test.cli[1].ipv4.arp arpResolutionInitiated:count 1
attr title "ARP initiated resolutions, count"
scalar Simple_test.cli[1].ipv4.arp arpReplySent:count 0
attr source arpReplySent
attr title "ARP replies sent, count"
scalar Simple_test.cli[1].ipv4.arp arpReplySent:sum(packetBytes) 0
attr source arpReplySent
attr title "ARP replies sent, sum(packetBytes)"
scalar Simple_test.cli[1].ipv4.arp arpRequestSent:count 1
attr source arpRequestSent
attr title "ARP request sent, count"
scalar Simple_test.cli[1].ipv4.arp arpRequestSent:sum(packetBytes) 28
attr source arpRequestSent
attr title "ARP request sent, sum(packetBytes)"
scalar Simple_test.cli[1].udp packetReceived:count 1
attr interpolationmode none
attr source packetReceived
attr title "packets received, count"
scalar Simple_test.cli[1].udp packetReceived:sum(packetBytes) 18
attr interpolationmode none
attr source packetReceived
attr title "packets received, sum(packetBytes)"
scalar Simple_test.cli[1].udp packetSent:count 24
attr interpolationmode none
attr source packetSent
attr title "packets sent, count"
scalar Simple_test.cli[1].udp packetSent:sum(packetBytes) 432
attr interpolationmode none
attr source packetSent
attr title "packets sent, sum(packetBytes)"
scalar Simple_test.cli[1].udp passedUpPk:count 1
attr interpolationmode none
attr source packetSentToUpper
attr title "packets passed up, count"
scalar Simple_test.cli[1].udp droppedPkWrongPort:count 0
attr interpolationmode none
attr source packetDropReasonIsNoPortFound(packetDropped)
attr title "packets dropped (wrong port), count"
scalar Simple_test.cli[1].udp droppedPkBadChecksum:count 0
attr interpolationmode none
attr source packetDropReasonIsIncorrectlyReceived(packetDropped)
attr title "packets dropped (checksum error), count"
scalar Simple_test.cli[1].app[0] "packets sent" 24
scalar Simple_test.cli[1].app[0] "packets received" 1
scalar Simple_test.cli[1].app[0] packetReceived:count 1
attr interpolationmode none
attr source packetReceived
attr title "packets received, count"
[...]
attr interpolationmode none
attr source packetDropReasonIsInterfaceDown(packetDropped)
attr title "packet drop: interface down, sum(packetBytes)"
scalar Simple_test.cli[4].eth[0].mac packetDropNotAddressedToUs:count 0
attr interpolationmode none
attr source packetDropReasonIsNotAddressedToUs(packetDropped)
attr title "packet drop: not addressed to us, count"
scalar Simple_test.cli[4].eth[0].mac packetDropNotAddressedToUs:sum(packetBytes) 0
attr interpolationmode none
attr source packetDropReasonIsNotAddressedToUs(packetDropped)
attr title "packet drop: not addressed to us, sum(packetBytes)"
scalar Simple_test.cli[4].eth[0].encap pauseSent:count 0
attr title "pause sent, count"
scalar Simple_test.cli[4].eth[0].encap pauseSent:sum 0
attr title "pause sent, sum"
scalar Simple_test.cli[4].eth[0].encap decapPk:count 1
attr interpolationmode none
attr source decapPk
attr title "packets decapsulated, count"
scalar Simple_test.cli[4].eth[0].encap decapPk:sum(packetBytes) 46
attr interpolationmode none
attr source decapPk
attr title "packets decapsulated, sum(packetBytes)"
scalar Simple_test.cli[4].eth[0].encap encapPk:count 25
attr interpolationmode none
attr source encapPk
attr title "packets encapsulated, count"
scalar Simple_test.cli[4].eth[0].encap encapPk:sum(packetBytes) 940
attr interpolationmode none
attr source encapPk
attr title "packets encapsulated, sum(packetBytes)"
scalar Simple_test.cli[4].ipv4.ip packetDropAddressResolutionFailed:count 0
attr interpolationmode none
attr source packetDropReasonIsAddressResolutionFailed(packetDropped)
attr title "packet drop: address resolution failed, count"
scalar Simple_test.cli[4].ipv4.ip packetDropAddressResolutionFailed:sum(packetBytes) 0
attr interpolationmode none
attr source packetDropReasonIsAddressResolutionFailed(packetDropped)
attr title "packet drop: address resolution failed, sum(packetBytes)"
scalar Simple_test.cli[4].ipv4.ip packetDropHopLimitReached:count 0
attr interpolationmode none
attr source packetDropReasonIsHopLimitReached(packetDropped)
attr title "packet drop: hop limit reached, count"
scalar Simple_test.cli[4].ipv4.ip packetDropHopLimitReached:sum(packetBytes) 0
attr interpolationmode none
attr source packetDropReasonIsHopLimitReached(packetDropped)
attr title "packet drop: hop limit reached, sum(packetBytes)"
scalar Simple_test.cli[4].ipv4.ip packetDropForwardingDisabled:count 0
attr interpolationmode none
attr source packetDropReasonIsForwardingDisabled(packetDropped)
attr title "packet drop: forwarding disabled, count"
scalar Simple_test.cli[4].ipv4.ip packetDropForwardingDisabled:sum(packetBytes) 0
attr interpolationmode none
attr source packetDropReasonIsForwardingDisabled(packetDropped)
attr title "packet drop: forwarding disabled, sum(packetBytes)"
scalar Simple_test.cli[4].ipv4.ip packetDropNoInterfaceFound:count 0
attr interpolationmode none
attr source packetDropReasonIsNoInterfaceFound(packetDropped)
attr title "packet drop: no interface found, count"
scalar Simple_test.cli[4].ipv4.ip packetDropNoInterfaceFound:sum(packetBytes) 0
attr interpolationmode none
attr source packetDropReasonIsNoInterfaceFound(packetDropped)
attr title "packet drop: no interface found, sum(packetBytes)"
scalar Simple_test.cli[4].ipv4.ip packetDropNoRouteFound:count 0
attr interpolationmode none
attr source packetDropReasonIsNoRouteFound(packetDropped)
attr title "packet drop: no route found, count"
scalar Simple_test.cli[4].ipv4.ip packetDropNoRouteFound:sum(packetBytes) 0
attr interpolationmode none
attr source packetDropReasonIsNoRouteFound(packetDropped)
attr title "packet drop: no route found, sum(packetBytes)"
scalar Simple_test.cli[4].ipv4.ip packetDropUndefined:count 0
attr interpolationmode none
attr source packetDropReasonIsUndefined(packetDropped)
attr title "packet drop: undefined, count"
scalar Simple_test.cli[4].ipv4.ip packetDropUndefined:sum(packetBytes) 0
attr interpolationmode none
attr source packetDropReasonIsUndefined(packetDropped)
attr title "packet drop: undefined, sum(packetBytes)"
scalar Simple_test.cli[4].ipv4.arp arpResolutionFailed:count 0
attr title "ARP failed resolutions, count"
scalar Simple_test.cli[4].ipv4.arp arpResolutionCompleted:count 1
attr title "ARP completed resolutions, count"
scalar Simple_test.cli[4].ipv4.arp arpResolutionInitiated:count 1
attr title "ARP initiated resolutions, count"
scalar Simple_test.cli[4].ipv4.arp arpReplySent:count 0
attr source arpReplySent
attr title "ARP replies sent, count"
scalar Simple_test.cli[4].ipv4.arp arpReplySent:sum(packetBytes) 0
attr source arpReplySent
attr title "ARP replies sent, sum(packetBytes)"
scalar Simple_test.cli[4].ipv4.arp arpRequestSent:count 1
attr source arpRequestSent
attr title "ARP request sent, count"
scalar Simple_test.cli[4].ipv4.arp arpRequestSent:sum(packetBytes) 28
attr source arpRequestSent
attr title "ARP request sent, sum(packetBytes)"
scalar Simple_test.cli[4].udp packetReceived:count 0
attr interpolationmode none
attr source packetReceived
attr title "packets received, count"
scalar Simple_test.cli[4].udp packetReceived:sum(packetBytes) 0
attr interpolationmode none
attr source packetReceived
attr title "packets received, sum(packetBytes)"
scalar Simple_test.cli[4].udp packetSent:count 24
attr interpolationmode none
attr source packetSent
attr title "packets sent, count"
scalar Simple_test.cli[4].udp packetSent:sum(packetBytes) 432
attr interpolationmode none
attr source packetSent
attr title "packets sent, sum(packetBytes)"
scalar Simple_test.cli[4].udp passedUpPk:count 0
attr interpolationmode none
attr source packetSentToUpper
attr title "packets passed up, count"
scalar Simple_test.cli[4].udp droppedPkWrongPort:count 0
attr interpolationmode none
attr source packetDropReasonIsNoPortFound(packetDropped)
attr title "packets dropped (wrong port), count"
scalar Simple_test.cli[4].udp droppedPkBadChecksum:count 0
attr interpolationmode none
attr source packetDropReasonIsIncorrectlyReceived(packetDropped)
attr title "packets dropped (checksum error), count"
scalar Simple_test.cli[4].app[0] "packets sent" 24
scalar Simple_test.cli[4].app[0] "packets received" 0
scalar Simple_test.cli[4].app[0] packetReceived:count 0
attr interpolationmode none
attr source packetReceived
attr title "packets received, count"
scalar Simple_test.cli[4].app[0] packetReceived:sum(packetBytes) 0
attr interpolationmode none
attr source packetReceived
attr title "packets received, sum(packetBytes)"
statistic Simple_test.cli[4].app[0] rcvdPkLifetime:stats
field count 0
field mean -nan
field stddev nan
field min nan
field max nan
field sum 0
field sqrsum 0
attr interpolationmode none
attr source dataAge(packetReceived)
attr title "received packet lifetime, stats"
attr unit s
scalar Simple_test.cli[4].app[0] packetSent:count 24
attr interpolationmode none
attr source packetSent
attr title "packets sent, count"
scalar Simple_test.cli[4].app[0] packetSent:sum(packetBytes) 240
attr interpolationmode none
attr source packetSent
attr title "packets sent, sum(packetBytes)"
scalar Simple_test.srv.lo[0].lo rcvdPkFromHl:count 0
attr interpolationmode none
attr source packetReceivedFromUpper
attr title "packets received from higher layer, count"
scalar Simple_test.srv.lo[0].lo rcvdPkFromHl:sum(packetBytes) 0
attr interpolationmode none
attr source packetReceivedFromUpper
attr title "packets received from higher layer, sum(packetBytes)"
scalar Simple_test.srv.lo[0].lo passedUpPk:count 0
attr interpolationmode none
attr source packetSentToUpper
attr title "packets passed to higher layer, count"
scalar Simple_test.srv.lo[0].lo passedUpPk:sum(packetBytes) 0
attr interpolationmode none
attr source packetSentToUpper
attr title "packets passed to higher layer, sum(packetBytes)"
scalar Simple_test.srv.eth[0].mac.queue packetPopped:count 5
attr interpolationmode none
attr title "packet popped, count"
scalar Simple_test.srv.eth[0].mac.queue packetPopped:sum(packetBytes) 320
attr interpolationmode none
attr title "packet popped, sum(packetBytes)"
statistic Simple_test.srv.eth[0].mac.queue queueingTime:histogram
field count 5
field mean 0
field stddev 0
field min 0
field max 0
field sum 0
field sqrsum 0
attr interpolationmode none
attr source queueingTime(packetPopped)
attr title "queueing times, histogram"
attr unit s
bin	-inf	0
bin	-0.5	0
bin	-0.48	0
bin	-0.46	0
bin	-0.44	0
bin	-0.42	0
bin	-0.4	0
bin	-0.38	0
bin	-0.36	0
bin	-0.34	0
bin	-0.32	0
bin	-0.3	0
bin	-0.28	0
bin	-0.26	0
bin	-0.24	0
bin	-0.22	0
bin	-0.2	0
bin	-0.18	0
bin	-0.16	0
bin	-0.14	0
bin	-0.12	0
bin	-0.1	0
bin	-0.08	0
bin	-0.06	0
bin	-0.04	0
bin	-0.02	0
bin	0	5
bin	0.02	0
bin	0.04	0
bin	0.06	0
bin	0.08	0
bin	0.1	0
bin	0.12	0
bin	0.14	0
bin	0.16	0
bin	0.18	0
bin	0.2	0
bin	0.22	0
bin	0.24	0
bin	0.26	0
bin	0.28	0
bin	0.3	0
bin	0.32	0
bin	0.34	0
bin	0.36	0
bin	0.38	0
bin	0.4	0
bin	0.42	0
bin	0.44	0
bin	0.46	0
bin	0.48	0
bin	0.5	0
scalar Simple_test.srv.eth[0].mac.queue queueLength:max 21
attr interpolationmode sample-hold
attr source "count(packetPushed) - count(packetPopped) - count(packetRemoved) - count(packetDropped)"
attr title "queue length, max"
scalar Simple_test.srv.eth[0].mac.queue queueLength:timeavg 18.083325509641
attr interpolationmode sample-hold
attr source "count(packetPushed) - count(packetPopped) - count(packetRemoved) - count(packetDropped)"
attr title "queue length, timeavg"
scalar Simple_test.srv.eth[0].mac.queue packetPushed:count 26
attr interpolationmode none
attr title "packet pushed, count"
scalar Simple_test.srv.eth[0].mac.queue packetPushed:sum(packetBytes) 1664
attr interpolationmode none
attr title "packet pushed, sum(packetBytes)"
scalar Simple_test.srv.eth[0].mac.queue packetDropQueueOverflow:count 0
attr interpolationmode none
attr source packetDropReasonIsQueueOverflow(packetDropped)
attr title "packet drops: queue overflow, count"
scalar Simple_test.srv.eth[0].mac.queue packetDropQueueOverflow:sum(packetBytes) 0
attr interpolationmode none
attr source packetDropReasonIsQueueOverflow(packetDropped)
attr title "packet drops: queue overflow, sum(packetBytes)"
scalar Simple_test.srv.eth[0].mac.queue packetRemoved:count 0
attr interpolationmode none
attr title "packets removed, count"
scalar Simple_test.srv.eth[0].mac.queue packetRemoved:sum(packetBytes) 0
attr interpolationmode none
attr title "packets removed, sum(packetBytes)"
scalar Simple_test.srv.eth[0].mac "simulated time" 25
scalar Simple_test.srv.eth[0].mac full-duplex 1
scalar Simple_test.srv.eth[0].mac "frames/sec sent" 0.16
scalar Simple_test.srv.eth[0].mac "frames/sec rcvd" 1.04
scalar Simple_test.srv.eth[0].mac "bits/sec sent" 81.92
scalar Simple_test.srv.eth[0].mac "bits/sec rcvd" 532.48
scalar Simple_test.srv.eth[0].mac "rx channel idle (%)" 99.9926272
scalar Simple_test.srv.eth[0].mac "rx channel utilization (%)" 0.0073728
scalar Simple_test.srv.eth[0].mac "rx channel collision (%)" 0
scalar Simple_test.srv.eth[0].mac collisions 0
scalar Simple_test.srv.eth[0].mac backoffs 0
scalar Simple_test.srv.eth[0].mac rxPausePkUnits:count 6
attr interpolationmode none
attr title "pause units received, count"
scalar Simple_test.srv.eth[0].mac rxPausePkUnits:sum 30
attr interpolationmode none
attr title "pause units received, sum"
scalar Simple_test.srv.eth[0].mac txPausePkUnits:count 0
attr interpolationmode none
attr title "pause units sent, count"
scalar Simple_test.srv.eth[0].mac txPausePkUnits:sum 0
attr interpolationmode none
attr title "pause units sent, sum"
scalar Simple_test.srv.eth[0].mac rxPkOk:count 26
attr interpolationmode none
attr source rxPkOk
attr title "packets received OK, count"
scalar Simple_test.srv.eth[0].mac rxPkOk:sum(packetBytes) 1664
attr interpolationmode none
attr source rxPkOk
attr title "packets received OK, sum(packetBytes)"
scalar Simple_test.srv.eth[0].mac backoffSlotsGenerated:count 0
attr interpolationmode none
attr title "backoff, count"
scalar Simple_test.srv.eth[0].mac collision:count 0
attr interpolationmode none
attr title "collision, count"
scalar Simple_test.srv.eth[0].mac txPk:count 4
attr interpolationmode none
attr source packetSentToLower
attr title "packets transmitted, count"
scalar Simple_test.srv.eth[0].mac txPk:sum(packetBytes) 256
attr interpolationmode none
attr source packetSentToLower
attr title "packets transmitted, sum(packetBytes)"
scalar Simple_test.srv.eth[0].mac packetReceivedFromUpper:count 26
attr interpolationmode none
attr source packetReceivedFromUpper
attr title "packet bytes from higher layer, count"
scalar Simple_test.srv.eth[0].mac packetReceivedFromUpper:sum(packetBytes) 1446
attr interpolationmode none
attr source packetReceivedFromUpper
attr title "packet bytes from higher layer, sum(packetBytes)"
scalar Simple_test.srv.eth[0].mac passedUpPk:count 26
attr interpolationmode none
attr source packetSentToUpper
attr title "packets passed to higher layer, count"
scalar Simple_test.srv.eth[0].mac passedUpPk:sum(packetBytes) 1664
attr interpolationmode none
attr source packetSentToUpper
attr title "packets passed to higher layer, sum(packetBytes)"
scalar Simple_test.srv.eth[0].mac packetDropIncorrectlyReceived:count 0
attr interpolationmode none
attr source packetDropReasonIsIncorrectlyReceived(packetDropped)
attr title "packet drop: incorrectly received, count"
scalar Simple_test.srv.eth[0].mac packetDropIncorrectlyReceived:sum(packetBytes) 0
attr interpolationmode none
attr source packetDropReasonIsIncorrectlyReceived(packetDropped)
attr title "packet drop: incorrectly received, sum(packetBytes)"
scalar Simple_test.srv.eth[0].mac packetDropInterfaceDown:count 0
attr interpolationmode none
attr source packetDropReasonIsInterfaceDown(packetDropped)
attr title "packet drop: interface down, count"
scalar Simple_test.srv.eth[0].mac packetDropInterfaceDown:sum(packetBytes) 0
attr interpolationmode none
attr source packetDropReasonIsInterfaceDown(packetDropped)
attr title "packet drop: interface down, sum(packetBytes)"
scalar Simple_test.srv.eth[0].mac packetDropNotAddressedToUs:count 0
attr interpolationmode none
attr source packetDropReasonIsNotAddressedToUs(packetDropped)
attr title "packet drop: not addressed to us, count"
scalar Simple_test.srv.eth[0].mac packetDropNotAddressedToUs:sum(packetBytes) 0
attr interpolationmode none
attr source packetDropReasonIsNotAddressedToUs(packetDropped)
attr title "packet drop: not addressed to us, sum(packetBytes)"
scalar Simple_test.srv.eth[0].encap pauseSent:count 0
attr title "pause sent, count"
scalar Simple_test.srv.eth[0].encap pauseSent:sum 0
attr title "pause sent, sum"
scalar Simple_test.srv.eth[0].encap decapPk:count 26
attr interpolationmode none
attr source decapPk
attr title "packets decapsulated, count"
scalar Simple_test.srv.eth[0].encap decapPk:sum(packetBytes) 1196
attr interpolationmode none
attr source decapPk
attr title "packets decapsulated, sum(packetBytes)"
scalar Simple_test.srv.eth[0].encap encapPk:count 26
attr interpolationmode none
attr source encapPk
attr title "packets encapsulated, count"
scalar Simple_test.srv.eth[0].encap encapPk:sum(packetBytes) 978
attr interpolationmode none
attr source encapPk
attr title "packets encapsulated, sum(packetBytes)"
scalar Simple_test.srv.ipv4.ip packetDropAddressResolutionFailed:count 0
attr interpolationmode none
attr source packetDropReasonIsAddressResolutionFailed(packetDropped)
attr title "packet drop: address resolution failed, count"
scalar Simple_test.srv.ipv4.ip packetDropAddressResolutionFailed:sum(packetBytes) 0
attr interpolationmode none
attr source packetDropReasonIsAddressResolutionFailed(packetDropped)
attr title "packet drop: address resolution failed, sum(packetBytes)"
scalar Simple_test.srv.ipv4.ip packetDropHopLimitReached:count 0
attr interpolationmode none
attr source packetDropReasonIsHopLimitReached(packetDropped)
attr title "packet drop: hop limit reached, count"
scalar Simple_test.srv.ipv4.ip packetDropHopLimitReached:sum(packetBytes) 0
attr interpolationmode none
attr source packetDropReasonIsHopLimitReached(packetDropped)
attr title "packet drop: hop limit reached, sum(packetBytes)"
scalar Simple_test.srv.ipv4.ip packetDropForwardingDisabled:count 0
attr interpolationmode none
attr source packetDropReasonIsForwardingDisabled(packetDropped)
attr title "packet drop: forwarding disabled, count"
scalar Simple_test.srv.ipv4.ip packetDropForwardingDisabled:sum(packetBytes) 0
attr interpolationmode none
attr source packetDropReasonIsForwardingDisabled(packetDropped)
attr title "packet drop: forwarding disabled, sum(packetBytes)"
scalar Simple_test.srv.ipv4.ip packetDropNoInterfaceFound:count 0
attr interpolationmode none
attr source packetDropReasonIsNoInterfaceFound(packetDropped)
attr title "packet drop: no interface found, count"
scalar Simple_test.srv.ipv4.ip packetDropNoInterfaceFound:sum(packetBytes) 0
attr interpolationmode none
attr source packetDropReasonIsNoInterfaceFound(packetDropped)
attr title "packet drop: no interface found, sum(packetBytes)"
scalar Simple_test.srv.ipv4.ip packetDropNoRouteFound:count 0
attr interpolationmode none
attr source packetDropReasonIsNoRouteFound(packetDropped)
attr title "packet drop: no route found, count"
scalar Simple_test.srv.ipv4.ip packetDropNoRouteFound:sum(packetBytes) 0
attr interpolationmode none
attr source packetDropReasonIsNoRouteFound(packetDropped)
attr title "packet drop: no route found, sum(packetBytes)"
scalar Simple_test.srv.ipv4.ip packetDropUndefined:count 0
attr interpolationmode none
attr source packetDropReasonIsUndefined(packetDropped)
attr title "packet drop: undefined, count"
scalar Simple_test.srv.ipv4.ip packetDropUndefined:sum(packetBytes) 0
attr interpolationmode none
attr source packetDropReasonIsUndefined(packetDropped)
attr title "packet drop: undefined, sum(packetBytes)"
scalar Simple_test.srv.ipv4.arp arpResolutionFailed:count 0
attr title "ARP failed resolutions, count"
scalar Simple_test.srv.ipv4.arp arpResolutionCompleted:count 1
attr title "ARP completed resolutions, count"
scalar Simple_test.srv.ipv4.arp arpResolutionInitiated:count 0
attr title "ARP initiated resolutions, count"
scalar Simple_test.srv.ipv4.arp arpReplySent:count 1
attr source arpReplySent
attr title "ARP replies sent, count"
scalar Simple_test.srv.ipv4.arp arpReplySent:sum(packetBytes) 28
attr source arpReplySent
attr title "ARP replies sent, sum(packetBytes)"
scalar Simple_test.srv.ipv4.arp arpRequestSent:count 0
attr source arpRequestSent
attr title "ARP request sent, count"
scalar Simple_test.srv.ipv4.arp arpRequestSent:sum(packetBytes) 0
attr source arpRequestSent
attr title "ARP request sent, sum(packetBytes)"
scalar Simple_test.srv.udp packetReceived:count 25
attr interpolationmode none
attr source packetReceived
attr title "packets received, count"
scalar Simple_test.srv.udp packetReceived:sum(packetBytes) 450
attr interpolationmode none
attr source packetReceived
attr title "packets received, sum(packetBytes)"
scalar Simple_test.srv.udp packetSent:count 25
attr interpolationmode none
attr source packetSent
attr title "packets sent, count"
scalar Simple_test.srv.udp packetSent:sum(packetBytes) 450
attr interpolationmode none
attr source packetSent
attr title "packets sent, sum(packetBytes)"
scalar Simple_test.srv.udp passedUpPk:count 25
attr interpolationmode none
attr source packetSentToUpper
attr title "packets passed up, count"
scalar Simple_test.srv.udp droppedPkWrongPort:count 0
attr interpolationmode none
attr source packetDropReasonIsNoPortFound(packetDropped)
attr title "packets dropped (wrong port), count"
scalar Simple_test.srv.udp droppedPkBadChecksum:count 0
attr interpolationmode none
attr source packetDropReasonIsIncorrectlyReceived(packetDropped)
attr title "packets dropped (checksum error), count"
scalar Simple_test.srv.app[0] echoedPk:count 25
attr interpolationmode none
attr source packetSent
attr title "packets echoed, count"
scalar Simple_test.srv.app[0] echoedPk:sum(packetBytes) 250
attr interpolationmode none
attr source packetSent
attr title "packets echoed, sum(packetBytes)"

