version 2
run Simple-0-20210128-22:58:51-4551
attr configname Simple
attr datetime 20210128-22:58:51
attr experiment Simple
attr inifile omnetpp.ini
attr iterationvars ""
attr iterationvarsf ""
attr measurement ""
attr network Simple_test
attr processid 4551
attr repetition 0
attr replication #0
attr resultdir results
attr runnumber 0
attr seedset 0
param *.n 4
param **.r1.numEthInterfaces 5
param **.cli*.numApps 1
param **.cli*.app[0].typename "\"UdpBasicApp\""
param **.cli*.app[0].localPort -1
param **.cli*.app[0].sendInterval 0.1s
param **.cli*.app[0].messageLength 10B
param **.cli*.app[0].stopTime 2500s
param **.srv*.numApps 1
param **.srv*.app[0].typename "\"UdpEchoApp\""
param **.srv*.app[0].localPort 1000
param **.srv*.app[0].sendInterval 0.1s
param **.eth[*].typename "\"EthernetInterfacePFC\""
param **.eth[*].mac.queue.typename "\"EtherQueuePFC\""
param **.cli[*].eth[*].mac.queue.is_host true
param **.srv.eth[*].mac.queue.is_host true
param **.r1.**.eth[*].mac.queue.is_host false
param **.mac.typename "\"EtherMacPFC\""
param **.mac.data_thres 25600
param **.mac.pause_time 1000
param **.cli*.app[0].destAddresses "\"srv\""
param **.cli*.app[0].destPort 1000
param **.crcMode "\"computed\""

vector 0 Simple_test.cli[0].app[0] packetSent:vector(packetBytes) ETV
attr interpolationmode none
attr source packetSent
attr title "packets sent, vector(packetBytes)"
vector 1 Simple_test.cli[1].app[0] packetSent:vector(packetBytes) ETV
attr interpolationmode none
attr source packetSent
attr title "packets sent, vector(packetBytes)"
vector 2 Simple_test.cli[2].app[0] packetSent:vector(packetBytes) ETV
attr interpolationmode none
attr source packetSent
attr title "packets sent, vector(packetBytes)"
vector 3 Simple_test.cli[3].app[0] packetSent:vector(packetBytes) ETV
attr interpolationmode none
attr source packetSent
attr title "packets sent, vector(packetBytes)"
vector 4 Simple_test.cli[0].udp packetSent:vector(packetBytes) ETV
attr interpolationmode none
attr source packetSent
attr title "packets sent, vector(packetBytes)"
vector 5 Simple_test.cli[1].udp packetSent:vector(packetBytes) ETV
attr interpolationmode none
attr source packetSent
attr title "packets sent, vector(packetBytes)"
vector 6 Simple_test.cli[2].udp packetSent:vector(packetBytes) ETV
attr interpolationmode none
attr source packetSent
attr title "packets sent, vector(packetBytes)"
vector 7 Simple_test.cli[3].udp packetSent:vector(packetBytes) ETV
attr interpolationmode none
attr source packetSent
attr title "packets sent, vector(packetBytes)"
vector 8 Simple_test.cli[0].ipv4.arp arpRequestSent:vector(packetBytes) ETV
attr source arpRequestSent
attr title "ARP request sent, vector(packetBytes)"
vector 9 Simple_test.cli[1].ipv4.arp arpRequestSent:vector(packetBytes) ETV
attr source arpRequestSent
attr title "ARP request sent, vector(packetBytes)"
vector 10 Simple_test.cli[2].ipv4.arp arpRequestSent:vector(packetBytes) ETV
attr source arpRequestSent
attr title "ARP request sent, vector(packetBytes)"
vector 11 Simple_test.cli[3].ipv4.arp arpRequestSent:vector(packetBytes) ETV
attr source arpRequestSent
attr title "ARP request sent, vector(packetBytes)"
vector 12 Simple_test.cli[0].eth[0].encap encapPk:vector(packetBytes) ETV
attr interpolationmode none
attr source encapPk
attr title "packets encapsulated, vector(packetBytes)"
vector 13 Simple_test.cli[1].eth[0].encap encapPk:vector(packetBytes) ETV
attr interpolationmode none
attr source encapPk
attr title "packets encapsulated, vector(packetBytes)"
vector 14 Simple_test.cli[2].eth[0].encap encapPk:vector(packetBytes) ETV
attr interpolationmode none
attr source encapPk
attr title "packets encapsulated, vector(packetBytes)"
vector 15 Simple_test.cli[3].eth[0].encap encapPk:vector(packetBytes) ETV
attr interpolationmode none
attr source encapPk
attr title "packets encapsulated, vector(packetBytes)"
vector 16 Simple_test.cli[0].eth[0].mac packetReceivedFromUpper:vector(packetBytes) ETV
attr interpolationmode none
attr source packetReceivedFromUpper
attr title "packet bytes from higher layer, vector(packetBytes)"
vector 17 Simple_test.cli[0].eth[0].mac.queue packetPushed:vector(packetBytes) ETV
attr interpolationmode none
attr title "packet pushed, vector(packetBytes)"
vector 18 Simple_test.cli[0].eth[0].mac.queue queueLength:vector ETV
attr interpolationmode sample-hold
attr source "count(packetPushed) - count(packetPopped) - count(packetRemoved) - count(packetDropped)"
attr title "queue length, vector"
vector 19 Simple_test.cli[0].eth[0].mac.queue packetPopped:vector(packetBytes) ETV
attr interpolationmode none
attr title "packet popped, vector(packetBytes)"
vector 20 Simple_test.cli[0].eth[0].mac.queue queueingTime:vector ETV
attr interpolationmode none
attr source queueingTime(packetPopped)
attr title "queueing times, vector"
attr unit s
vector 21 Simple_test.cli[1].eth[0].mac packetReceivedFromUpper:vector(packetBytes) ETV
attr interpolationmode none
attr source packetReceivedFromUpper
attr title "packet bytes from higher layer, vector(packetBytes)"
vector 22 Simple_test.cli[1].eth[0].mac.queue packetPushed:vector(packetBytes) ETV
attr interpolationmode none
attr title "packet pushed, vector(packetBytes)"
vector 23 Simple_test.cli[1].eth[0].mac.queue queueLength:vector ETV
attr interpolationmode sample-hold
attr source "count(packetPushed) - count(packetPopped) - count(packetRemoved) - count(packetDropped)"
attr title "queue length, vector"
vector 24 Simple_test.cli[1].eth[0].mac.queue packetPopped:vector(packetBytes) ETV
attr interpolationmode none
attr title "packet popped, vector(packetBytes)"
vector 25 Simple_test.cli[1].eth[0].mac.queue queueingTime:vector ETV
attr interpolationmode none
attr source queueingTime(packetPopped)
attr title "queueing times, vector"
attr unit s
vector 26 Simple_test.cli[2].eth[0].mac packetReceivedFromUpper:vector(packetBytes) ETV
attr interpolationmode none
attr source packetReceivedFromUpper
attr title "packet bytes from higher layer, vector(packetBytes)"
vector 27 Simple_test.cli[2].eth[0].mac.queue packetPushed:vector(packetBytes) ETV
attr interpolationmode none
attr title "packet pushed, vector(packetBytes)"
vector 28 Simple_test.cli[2].eth[0].mac.queue queueLength:vector ETV
attr interpolationmode sample-hold
attr source "count(packetPushed) - count(packetPopped) - count(packetRemoved) - count(packetDropped)"
attr title "queue length, vector"
vector 29 Simple_test.cli[2].eth[0].mac.queue packetPopped:vector(packetBytes) ETV
attr interpolationmode none
attr title "packet popped, vector(packetBytes)"
vector 30 Simple_test.cli[2].eth[0].mac.queue queueingTime:vector ETV
attr interpolationmode none
attr source queueingTime(packetPopped)
attr title "queueing times, vector"
attr unit s
vector 31 Simple_test.cli[3].eth[0].mac packetReceivedFromUpper:vector(packetBytes) ETV
attr interpolationmode none
attr source packetReceivedFromUpper
attr title "packet bytes from higher layer, vector(packetBytes)"
vector 32 Simple_test.cli[3].eth[0].mac.queue packetPushed:vector(packetBytes) ETV
attr interpolationmode none
attr title "packet pushed, vector(packetBytes)"
vector 33 Simple_test.cli[3].eth[0].mac.queue queueLength:vector ETV
attr interpolationmode sample-hold
attr source "count(packetPushed) - count(packetPopped) - count(packetRemoved) - count(packetDropped)"
attr title "queue length, vector"
vector 34 Simple_test.cli[3].eth[0].mac.queue packetPopped:vector(packetBytes) ETV
attr interpolationmode none
attr title "packet popped, vector(packetBytes)"
vector 35 Simple_test.cli[3].eth[0].mac.queue queueingTime:vector ETV
attr interpolationmode none
attr source queueingTime(packetPopped)
attr title "queueing times, vector"
attr unit s
vector 36 Simple_test.cli[0].eth[0].mac txPk:vector(packetBytes) ETV
attr interpolationmode none
attr source packetSentToLower
attr title "packets transmitted, vector(packetBytes)"
vector 37 Simple_test.cli[1].eth[0].mac txPk:vector(packetBytes) ETV
attr interpolationmode none
attr source packetSentToLower
attr title "packets transmitted, vector(packetBytes)"
vector 38 Simple_test.cli[2].eth[0].mac txPk:vector(packetBytes) ETV
attr interpolationmode none
attr source packetSentToLower
attr title "packets transmitted, vector(packetBytes)"
vector 39 Simple_test.cli[3].eth[0].mac txPk:vector(packetBytes) ETV
attr interpolationmode none
attr source packetSentToLower
attr title "packets transmitted, vector(packetBytes)"
vector 40 Simple_test.r1.eth[0].mac rxPkOk:vector(packetBytes) ETV
attr interpolationmode none
attr source rxPkOk
attr title "packets received OK, vector(packetBytes)"
vector 41 Simple_test.r1.eth[0].mac passedUpPk:vector(packetBytes) ETV
attr interpolationmode none
attr source packetSentToUpper
attr title "packets passed to higher layer, vector(packetBytes)"
vector 42 Simple_test.r1.eth[1].mac rxPkOk:vector(packetBytes) ETV
attr interpolationmode none
attr source rxPkOk
attr title "packets received OK, vector(packetBytes)"
vector 43 Simple_test.r1.eth[1].mac passedUpPk:vector(packetBytes) ETV
attr interpolationmode none
attr source packetSentToUpper
attr title "packets passed to higher layer, vector(packetBytes)"
vector 44 Simple_test.r1.eth[2].mac rxPkOk:vector(packetBytes) ETV
attr interpolationmode none
attr source rxPkOk
attr title "packets received OK, vector(packetBytes)"
vector 45 Simple_test.r1.eth[2].mac passedUpPk:vector(packetBytes) ETV
attr interpolationmode none
attr source packetSentToUpper
attr title "packets passed to higher layer, vector(packetBytes)"
vector 46 Simple_test.r1.eth[3].mac rxPkOk:vector(packetBytes) ETV
attr interpolationmode none
attr source rxPkOk
attr title "packets received OK, vector(packetBytes)"
vector 47 Simple_test.r1.eth[3].mac passedUpPk:vector(packetBytes) ETV
attr interpolationmode none
attr source packetSentToUpper
attr title "packets passed to higher layer, vector(packetBytes)"
vector 48 Simple_test.r1.eth[0].encap decapPk:vector(packetBytes) ETV
attr interpolationmode none
attr source decapPk
attr title "packets decapsulated, vector(packetBytes)"
vector 49 Simple_test.r1.eth[1].encap decapPk:vector(packetBytes) ETV
attr interpolationmode none
attr source decapPk
attr title "packets decapsulated, vector(packetBytes)"
vector 50 Simple_test.r1.eth[2].encap decapPk:vector(packetBytes) ETV
attr interpolationmode none
attr source decapPk
attr title "packets decapsulated, vector(packetBytes)"
vector 51 Simple_test.r1.eth[3].encap decapPk:vector(packetBytes) ETV
attr interpolationmode none
attr source decapPk
attr title "packets decapsulated, vector(packetBytes)"
vector 52 Simple_test.r1.ipv4.arp arpReplySent:vector(packetBytes) ETV
attr source arpReplySent
attr title "ARP replies sent, vector(packetBytes)"
vector 53 Simple_test.r1.eth[0].encap encapPk:vector(packetBytes) ETV
attr interpolationmode none
attr source encapPk
attr title "packets encapsulated, vector(packetBytes)"
vector 54 Simple_test.r1.eth[1].encap encapPk:vector(packetBytes) ETV
attr interpolationmode none
attr source encapPk
attr title "packets encapsulated, vector(packetBytes)"
vector 55 Simple_test.r1.eth[2].encap encapPk:vector(packetBytes) ETV
attr interpolationmode none
attr source encapPk
attr title "packets encapsulated, vector(packetBytes)"
vector 56 Simple_test.r1.eth[3].encap encapPk:vector(packetBytes) ETV
attr interpolationmode none
attr source encapPk
attr title "packets encapsulated, vector(packetBytes)"
vector 57 Simple_test.r1.eth[0].mac packetReceivedFromUpper:vector(packetBytes) ETV
attr interpolationmode none
attr source packetReceivedFromUpper
attr title "packet bytes from higher layer, vector(packetBytes)"
vector 58 Simple_test.r1.eth[0].mac.queue packetPushed:vector(packetBytes) ETV
attr interpolationmode none
attr title "packet pushed, vector(packetBytes)"
vector 59 Simple_test.r1.eth[0].mac.queue queueLength:vector ETV
attr interpolationmode sample-hold
attr source "count(packetPushed) - count(packetPopped) - count(packetRemoved) - count(packetDropped)"
attr title "queue length, vector"
vector 60 Simple_test.r1.eth[0].mac.queue packetPopped:vector(packetBytes) ETV
attr interpolationmode none
attr title "packet popped, vector(packetBytes)"
vector 61 Simple_test.r1.eth[0].mac.queue queueingTime:vector ETV
attr interpolationmode none
attr source queueingTime(packetPopped)
attr title "queueing times, vector"
attr unit s
vector 62 Simple_test.r1.eth[1].mac packetReceivedFromUpper:vector(packetBytes) ETV
attr interpolationmode none
attr source packetReceivedFromUpper
attr title "packet bytes from higher layer, vector(packetBytes)"
vector 63 Simple_test.r1.eth[1].mac.queue packetPushed:vector(packetBytes) ETV
attr interpolationmode none
attr title "packet pushed, vector(packetBytes)"
vector 64 Simple_test.r1.eth[1].mac.queue queueLength:vector ETV
attr interpolationmode sample-hold
attr source "count(packetPushed) - count(packetPopped) - count(packetRemoved) - count(packetDropped)"
attr title "queue length, vector"
vector 65 Simple_test.r1.eth[1].mac.queue packetPopped:vector(packetBytes) ETV
attr interpolationmode none
attr title "packet popped, vector(packetBytes)"
vector 66 Simple_test.r1.eth[1].mac.queue queueingTime:vector ETV
attr interpolationmode none
attr source queueingTime(packetPopped)
attr title "queueing times, vector"
attr unit s
vector 67 Simple_test.r1.eth[2].mac packetReceivedFromUpper:vector(packetBytes) ETV
attr interpolationmode none
attr source packetReceivedFromUpper
attr title "packet bytes from higher layer, vector(packetBytes)"
vector 68 Simple_test.r1.eth[2].mac.queue packetPushed:vector(packetBytes) ETV
attr interpolationmode none
attr title "packet pushed, vector(packetBytes)"
vector 69 Simple_test.r1.eth[2].mac.queue queueLength:vector ETV
attr interpolationmode sample-hold
attr source "count(packetPushed) - count(packetPopped) - count(packetRemoved) - count(packetDropped)"
attr title "queue length, vector"
vector 70 Simple_test.r1.eth[2].mac.queue packetPopped:vector(packetBytes) ETV
attr interpolationmode none
attr title "packet popped, vector(packetBytes)"
vector 71 Simple_test.r1.eth[2].mac.queue queueingTime:vector ETV
attr interpolationmode none
attr source queueingTime(packetPopped)
attr title "queueing times, vector"
attr unit s
vector 72 Simple_test.r1.eth[3].mac packetReceivedFromUpper:vector(packetBytes) ETV
attr interpolationmode none
attr source packetReceivedFromUpper
attr title "packet bytes from higher layer, vector(packetBytes)"
vector 73 Simple_test.r1.eth[3].mac.queue packetPushed:vector(packetBytes) ETV
attr interpolationmode none
attr title "packet pushed, vector(packetBytes)"
vector 74 Simple_test.r1.eth[3].mac.queue queueLength:vector ETV
attr interpolationmode sample-hold
attr source "count(packetPushed) - count(packetPopped) - count(packetRemoved) - count(packetDropped)"
attr title "queue length, vector"
vector 75 Simple_test.r1.eth[3].mac.queue packetPopped:vector(packetBytes) ETV
attr interpolationmode none
attr title "packet popped, vector(packetBytes)"
vector 76 Simple_test.r1.eth[3].mac.queue queueingTime:vector ETV
attr interpolationmode none
attr source queueingTime(packetPopped)
attr title "queueing times, vector"
attr unit s
vector 77 Simple_test.r1.eth[0].mac txPk:vector(packetBytes) ETV
attr interpolationmode none
attr source packetSentToLower
attr title "packets transmitted, vector(packetBytes)"
vector 78 Simple_test.r1.eth[1].mac txPk:vector(packetBytes) ETV
attr interpolationmode none
attr source packetSentToLower
attr title "packets transmitted, vector(packetBytes)"
vector 79 Simple_test.r1.eth[2].mac txPk:vector(packetBytes) ETV
attr interpolationmode none
attr source packetSentToLower
attr title "packets transmitted, vector(packetBytes)"
vector 80 Simple_test.r1.eth[3].mac txPk:vector(packetBytes) ETV
attr interpolationmode none
attr source packetSentToLower
attr title "packets transmitted, vector(packetBytes)"
vector 81 Simple_test.cli[0].eth[0].mac rxPkOk:vector(packetBytes) ETV
attr interpolationmode none
attr source rxPkOk
attr title "packets received OK, vector(packetBytes)"
vector 82 Simple_test.cli[0].eth[0].mac passedUpPk:vector(packetBytes) ETV
attr interpolationmode none
attr source packetSentToUpper
attr title "packets passed to higher layer, vector(packetBytes)"
vector 83 Simple_test.cli[1].eth[0].mac rxPkOk:vector(packetBytes) ETV
attr interpolationmode none
attr source rxPkOk
attr title "packets received OK, vector(packetBytes)"
vector 84 Simple_test.cli[1].eth[0].mac passedUpPk:vector(packetBytes) ETV
attr interpolationmode none
attr source packetSentToUpper
attr title "packets passed to higher layer, vector(packetBytes)"
vector 85 Simple_test.cli[2].eth[0].mac rxPkOk:vector(packetBytes) ETV
attr interpolationmode none
attr source rxPkOk
attr title "packets received OK, vector(packetBytes)"
vector 86 Simple_test.cli[2].eth[0].mac passedUpPk:vector(packetBytes) ETV
attr interpolationmode none
attr source packetSentToUpper
attr title "packets passed to higher layer, vector(packetBytes)"
vector 87 Simple_test.cli[3].eth[0].mac rxPkOk:vector(packetBytes) ETV
attr interpolationmode none
attr source rxPkOk
attr title "packets received OK, vector(packetBytes)"
vector 88 Simple_test.cli[3].eth[0].mac passedUpPk:vector(packetBytes) ETV
attr interpolationmode none
attr source packetSentToUpper
attr title "packets passed to higher layer, vector(packetBytes)"
vector 89 Simple_test.cli[0].eth[0].encap decapPk:vector(packetBytes) ETV
attr interpolationmode none
attr source decapPk
attr title "packets decapsulated, vector(packetBytes)"
vector 90 Simple_test.cli[1].eth[0].encap decapPk:vector(packetBytes) ETV
attr interpolationmode none
attr source decapPk
attr title "packets decapsulated, vector(packetBytes)"
vector 91 Simple_test.cli[2].eth[0].encap decapPk:vector(packetBytes) ETV
attr interpolationmode none
attr source decapPk
attr title "packets decapsulated, vector(packetBytes)"
vector 92 Simple_test.cli[3].eth[0].encap decapPk:vector(packetBytes) ETV
attr interpolationmode none
attr source decapPk
attr title "packets decapsulated, vector(packetBytes)"
vector 93 Simple_test.r1.ipv4.arp arpRequestSent:vector(packetBytes) ETV
attr source arpRequestSent
attr title "ARP request sent, vector(packetBytes)"
vector 94 Simple_test.r1.eth[4].encap encapPk:vector(packetBytes) ETV
attr interpolationmode none
attr source encapPk
attr title "packets encapsulated, vector(packetBytes)"
vector 95 Simple_test.r1.eth[4].mac packetReceivedFromUpper:vector(packetBytes) ETV
attr interpolationmode none
attr source packetReceivedFromUpper
attr title "packet bytes from higher layer, vector(packetBytes)"
vector 96 Simple_test.r1.eth[4].mac.queue packetPushed:vector(packetBytes) ETV
attr interpolationmode none
attr title "packet pushed, vector(packetBytes)"
vector 97 Simple_test.r1.eth[4].mac.queue queueLength:vector ETV
attr interpolationmode sample-hold
attr source "count(packetPushed) - count(packetPopped) - count(packetRemoved) - count(packetDropped)"
attr title "queue length, vector"
vector 98 Simple_test.r1.eth[4].mac.queue packetPopped:vector(packetBytes) ETV
attr interpolationmode none
attr title "packet popped, vector(packetBytes)"
vector 99 Simple_test.r1.eth[4].mac.queue queueingTime:vector ETV
attr interpolationmode none
attr source queueingTime(packetPopped)
attr title "queueing times, vector"
attr unit s
vector 100 Simple_test.r1.eth[4].mac txPk:vector(packetBytes) ETV
attr interpolationmode none
attr source packetSentToLower
attr title "packets transmitted, vector(packetBytes)"
vector 101 Simple_test.srv.eth[0].mac rxPkOk:vector(packetBytes) ETV
attr interpolationmode none
attr source rxPkOk
attr title "packets received OK, vector(packetBytes)"
vector 102 Simple_test.srv.eth[0].mac passedUpPk:vector(packetBytes) ETV
attr interpolationmode none
attr source packetSentToUpper
attr title "packets passed to higher layer, vector(packetBytes)"
vector 103 Simple_test.srv.eth[0].encap decapPk:vector(packetBytes) ETV
attr interpolationmode none
attr source decapPk
attr title "packets decapsulated, vector(packetBytes)"
vector 104 Simple_test.srv.ipv4.arp arpReplySent:vector(packetBytes) ETV
attr source arpReplySent
attr title "ARP replies sent, vector(packetBytes)"
vector 105 Simple_test.srv.eth[0].encap encapPk:vector(packetBytes) ETV
attr interpolationmode none
attr source encapPk
attr title "packets encapsulated, vector(packetBytes)"
vector 106 Simple_test.srv.eth[0].mac packetReceivedFromUpper:vector(packetBytes) ETV
attr interpolationmode none
attr source packetReceivedFromUpper
attr title "packet bytes from higher layer, vector(packetBytes)"
vector 107 Simple_test.srv.eth[0].mac.queue packetPushed:vector(packetBytes) ETV
attr interpolationmode none
attr title "packet pushed, vector(packetBytes)"
vector 108 Simple_test.srv.eth[0].mac.queue queueLength:vector ETV
attr interpolationmode sample-hold
attr source "count(packetPushed) - count(packetPopped) - count(packetRemoved) - count(packetDropped)"
attr title "queue length, vector"
vector 109 Simple_test.srv.eth[0].mac.queue packetPopped:vector(packetBytes) ETV
attr interpolationmode none
attr title "packet popped, vector(packetBytes)"
vector 110 Simple_test.srv.eth[0].mac.queue queueingTime:vector ETV
attr interpolationmode none
attr source queueingTime(packetPopped)
attr title "queueing times, vector"
attr unit s
vector 111 Simple_test.srv.eth[0].mac txPk:vector(packetBytes) ETV
attr interpolationmode none
attr source packetSentToLower
attr title "packets transmitted, vector(packetBytes)"
vector 112 Simple_test.r1.eth[4].mac rxPkOk:vector(packetBytes) ETV
attr interpolationmode none
attr source rxPkOk
attr title "packets received OK, vector(packetBytes)"
vector 113 Simple_test.r1.eth[4].mac passedUpPk:vector(packetBytes) ETV
attr interpolationmode none
attr source packetSentToUpper
attr title "packets passed to higher layer, vector(packetBytes)"
vector 114 Simple_test.r1.eth[4].encap decapPk:vector(packetBytes) ETV
attr interpolationmode none
attr source decapPk
attr title "packets decapsulated, vector(packetBytes)"
vector 115 Simple_test.srv.udp packetReceived:vector(packetBytes) ETV
attr interpolationmode none
attr source packetReceived
attr title "packets received, vector(packetBytes)"
vector 116 Simple_test.srv.udp passedUpPk:vector(count) ETV
attr interpolationmode none
attr source packetSentToUpper
attr title "packets passed up, vector(count)"
vector 117 Simple_test.srv.app[0] echoedPk:vector(packetBytes) ETV
attr interpolationmode none
attr source packetSent
attr title "packets echoed, vector(packetBytes)"
vector 118 Simple_test.srv.udp packetSent:vector(packetBytes) ETV
attr interpolationmode none
attr source packetSent
attr title "packets sent, vector(packetBytes)"
vector 119 Simple_test.cli[0].udp packetReceived:vector(packetBytes) ETV
attr interpolationmode none
attr source packetReceived
attr title "packets received, vector(packetBytes)"
vector 120 Simple_test.cli[0].udp passedUpPk:vector(count) ETV
attr interpolationmode none
attr source packetSentToUpper
attr title "packets passed up, vector(count)"
vector 121 Simple_test.cli[0].app[0] packetReceived:vector(packetBytes) ETV
attr interpolationmode none
attr source packetReceived
attr title "packets received, vector(packetBytes)"
vector 122 Simple_test.cli[0].app[0] throughput:vector ETV
attr source throughput(packetReceived)
attr title "throughput, vector"
attr unit bps
vector 123 Simple_test.cli[0].app[0] rcvdPkLifetime:vector ETV
attr interpolationmode none
attr source dataAge(packetReceived)
attr title "received packet lifetime, vector"
attr unit s
vector 124 Simple_test.cli[0].app[0] rcvdPkSeqNo:vector ETV
attr interpolationmode none
attr source appPkSeqNo(packetReceived)
attr title "received packet sequence number, vector"
vector 125 Simple_test.cli[1].udp packetReceived:vector(packetBytes) ETV
attr interpolationmode none
attr source packetReceived
attr title "packets received, vector(packetBytes)"
vector 126 Simple_test.cli[1].udp passedUpPk:vector(count) ETV
attr interpolationmode none
attr source packetSentToUpper
attr title "packets passed up, vector(count)"
vector 127 Simple_test.cli[1].app[0] packetReceived:vector(packetBytes) ETV
attr interpolationmode none
attr source packetReceived
attr title "packets received, vector(packetBytes)"
vector 128 Simple_test.cli[1].app[0] throughput:vector ETV
attr source throughput(packetReceived)
attr title "throughput, vector"
attr unit bps
vector 129 Simple_test.cli[1].app[0] rcvdPkLifetime:vector ETV
attr interpolationmode none
attr source dataAge(packetReceived)
attr title "received packet lifetime, vector"
attr unit s
vector 130 Simple_test.cli[1].app[0] rcvdPkSeqNo:vector ETV
attr interpolationmode none
attr source appPkSeqNo(packetReceived)
attr title "received packet sequence number, vector"
vector 131 Simple_test.cli[2].udp packetReceived:vector(packetBytes) ETV
attr interpolationmode none
attr source packetReceived
attr title "packets received, vector(packetBytes)"
vector 132 Simple_test.cli[2].udp passedUpPk:vector(count) ETV
attr interpolationmode none
attr source packetSentToUpper
attr title "packets passed up, vector(count)"
vector 133 Simple_test.cli[2].app[0] packetReceived:vector(packetBytes) ETV
attr interpolationmode none
attr source packetReceived
attr title "packets received, vector(packetBytes)"
vector 134 Simple_test.cli[2].app[0] throughput:vector ETV
attr source throughput(packetReceived)
attr title "throughput, vector"
attr unit bps
vector 135 Simple_test.cli[2].app[0] rcvdPkLifetime:vector ETV
attr interpolationmode none
attr source dataAge(packetReceived)
attr title "received packet lifetime, vector"
attr unit s
vector 136 Simple_test.cli[2].app[0] rcvdPkSeqNo:vector ETV
attr interpolationmode none
attr source appPkSeqNo(packetReceived)
attr title "received packet sequence number, vector"
vector 137 Simple_test.cli[3].udp packetReceived:vector(packetBytes) ETV
attr interpolationmode none
attr source packetReceived
attr title "packets received, vector(packetBytes)"
vector 138 Simple_test.cli[3].udp passedUpPk:vector(count) ETV
attr interpolationmode none
attr source packetSentToUpper
attr title "packets passed up, vector(count)"
vector 139 Simple_test.cli[3].app[0] packetReceived:vector(packetBytes) ETV
attr interpolationmode none
attr source packetReceived
attr title "packets received, vector(packetBytes)"
vector 140 Simple_test.cli[3].app[0] throughput:vector ETV
attr source throughput(packetReceived)
attr title "throughput, vector"
attr unit bps
vector 141 Simple_test.cli[3].app[0] rcvdPkLifetime:vector ETV
attr interpolationmode none
attr source dataAge(packetReceived)
attr title "received packet lifetime, vector"
attr unit s
vector 142 Simple_test.cli[3].app[0] rcvdPkSeqNo:vector ETV
attr interpolationmode none
attr source appPkSeqNo(packetReceived)
attr title "received packet sequence number, vector"
0	3	0.1	10
0	271	0.2	10
0	445	0.3	10
0	619	0.4	10
0	793	0.5	10
0	967	0.6	10
0	1141	0.7	10
0	1315	0.8	10
0	1489	0.9	10
0	1663	1	10
0	1837	1.1	10
0	2011	1.2	10
0	2185	1.3	10
0	2359	1.4	10
0	2533	1.5	10
0	2707	1.6	10
0	2881	1.7	10
0	3055	1.8	10
0	3229	1.9	10
0	3403	2	10
0	3577	2.1	10
0	3751	2.2	10
0	3925	2.3	10
0	4099	2.4	10
0	4273	2.5	10
0	4447	2.6	10
0	4621	2.7	10
0	4795	2.8	10
0	4969	2.9	10
0	5143	3	10
0	5317	3.1	10
0	5491	3.2	10
0	5665	3.3	10
0	5839	3.4	10
0	6013	3.5	10
0	6187	3.6	10
0	6361	3.7	10
0	6535	3.8	10
0	6709	3.9	10
0	6883	4	10
0	7057	4.1	10
0	7231	4.2	10
0	7405	4.3	10
0	7579	4.4	10
0	7753	4.5	10
0	7927	4.6	10
0	8101	4.7	10
0	8275	4.8	10
0	8449	4.9	10
0	8623	5	10
0	8797	5.1	10
0	8971	5.2	10
0	9145	5.3	10
0	9319	5.4	10
0	9493	5.5	10
0	9667	5.6	10
0	9841	5.7	10
0	10015	5.8	10
0	10189	5.9	10
0	10363	6	10
0	10537	6.1	10
0	10711	6.2	10
0	10885	6.3	10
0	11059	6.4	10
0	11233	6.5	10
0	11407	6.6	10
0	11581	6.7	10
0	11755	6.8	10
0	11929	6.9	10
0	12103	7	10
0	12277	7.1	10
0	12451	7.2	10
0	12625	7.3	10
0	12799	7.4	10
0	12973	7.5	10
0	13147	7.6	10
0	13321	7.7	10
0	13495	7.8	10
0	13669	7.9	10
0	13843	8	10
0	14017	8.1	10
0	14191	8.2	10
0	14365	8.3	10
0	14539	8.4	10
0	14713	8.5	10
0	14887	8.6	10
0	15061	8.7	10
0	15235	8.8	10
0	15409	8.9	10
0	15583	9	10
0	15757	9.1	10
0	15931	9.2	10
0	16105	9.3	10
0	16279	9.4	10
0	16453	9.5	10
0	16627	9.6	10
0	16801	9.7	10
0	16975	9.8	10
0	17149	9.9	10
0	17323	10	10
0	17497	10.1	10
0	17671	10.2	10
0	17845	10.3	10
0	18019	10.4	10
0	18193	10.5	10
0	18367	10.6	10
0	18541	10.7	10
0	18715	10.8	10
0	18889	10.9	10
0	19063	11	10
0	19237	11.1	10
0	19411	11.2	10
0	19585	11.3	10
0	19759	11.4	10
0	19933	11.5	10
0	20107	11.6	10
0	20281	11.7	10
0	20455	11.8	10
0	20629	11.9	10
0	20803	12	10
0	20977	12.1	10
0	21151	12.2	10
0	21325	12.3	10
0	21499	12.4	10
0	21673	12.5	10
0	21847	12.6	10
0	22021	12.7	10
0	22195	12.8	10
0	22369	12.9	10
0	22543	13	10
0	22717	13.1	10
0	22891	13.2	10
0	23065	13.3	10
0	23239	13.4	10
0	23413	13.5	10
0	23587	13.6	10
0	23761	13.7	10
0	23935	13.8	10
0	24109	13.9	10
0	24283	14	10
0	24457	14.1	10
0	24631	14.2	10
0	24805	14.3	10
0	24979	14.4	10
0	25153	14.5	10
0	25327	14.6	10
0	25501	14.7	10
0	25675	14.8	10
0	25849	14.9	10
0	26023	15	10
0	26197	15.1	10
0	26371	15.2	10
0	26545	15.3	10
0	26719	15.4	10
0	26893	15.5	10
0	27067	15.6	10
0	27241	15.7	10
0	27415	15.8	10
0	27589	15.9	10
0	27763	16	10
0	27937	16.1	10
0	28111	16.2	10
0	28285	16.3	10
0	28459	16.4	10
0	28633	16.5	10
0	28807	16.6	10
0	28981	16.7	10
0	29155	16.8	10
0	29329	16.9	10
0	29503	17	10
0	29677	17.1	10
0	29851	17.2	10
0	30025	17.3	10
0	30199	17.4	10
0	30373	17.5	10
0	30547	17.6	10
0	30721	17.7	10
0	30895	17.8	10
0	31069	17.9	10
0	31243	18	10
0	31417	18.1	10
0	31591	18.2	10
0	31765	18.3	10
0	31939	18.4	10
0	32113	18.5	10
0	32287	18.6	10
0	32461	18.7	10
0	32635	18.8	10
0	32809	18.9	10
0	32983	19	10
0	33157	19.1	10
0	33331	19.2	10
0	33505	19.3	10
0	33679	19.4	10
0	33853	19.5	10
0	34027	19.6	10
0	34201	19.7	10
0	34375	19.8	10
0	34549	19.9	10
0	34723	20	10
0	34897	20.1	10
0	35071	20.2	10
0	35245	20.3	10
0	35419	20.4	10
0	35593	20.5	10
0	35767	20.6	10
0	35941	20.7	10
0	36115	20.8	10
0	36289	20.9	10
1	4	0.1	10
1	272	0.2	10
1	446	0.3	10
1	620	0.4	10
1	794	0.5	10
1	968	0.6	10
1	1142	0.7	10
1	1316	0.8	10
1	1490	0.9	10
1	1664	1	10
1	1838	1.1	10
1	2012	1.2	10
1	2186	1.3	10
1	2360	1.4	10
1	2534	1.5	10
1	2708	1.6	10
1	2882	1.7	10
1	3056	1.8	10
1	3230	1.9	10
1	3404	2	10
1	3578	2.1	10
1	3752	2.2	10
1	3926	2.3	10
1	4100	2.4	10
1	4274	2.5	10
1	4448	2.6	10
1	4622	2.7	10
1	4796	2.8	10
1	4970	2.9	10
1	5144	3	10
1	5318	3.1	10
1	5492	3.2	10
1	5666	3.3	10
1	5840	3.4	10
1	6014	3.5	10
1	6188	3.6	10
1	6362	3.7	10
1	6536	3.8	10
1	6710	3.9	10
1	6884	4	10
1	7058	4.1	10
1	7232	4.2	10
1	7406	4.3	10
1	7580	4.4	10
1	7754	4.5	10
1	7928	4.6	10
1	8102	4.7	10
1	8276	4.8	10
1	8450	4.9	10
1	8624	5	10
1	8798	5.1	10
1	8972	5.2	10
1	9146	5.3	10
1	9320	5.4	10
1	9494	5.5	10
1	9668	5.6	10
1	9842	5.7	10
1	10016	5.8	10
1	10190	5.9	10
1	10364	6	10
1	10538	6.1	10
1	10712	6.2	10
1	10886	6.3	10
1	11060	6.4	10
1	11234	6.5	10
1	11408	6.6	10
1	11582	6.7	10
1	11756	6.8	10
1	11930	6.9	10
1	12104	7	10
1	12278	7.1	10
1	12452	7.2	10
1	12626	7.3	10
1	12800	7.4	10
1	12974	7.5	10
1	13148	7.6	10
1	13322	7.7	10
1	13496	7.8	10
1	13670	7.9	10
1	13844	8	10
1	14018	8.1	10
1	14192	8.2	10
1	14366	8.3	10
1	14540	8.4	10
1	14714	8.5	10
1	14888	8.6	10
1	15062	8.7	10
1	15236	8.8	10
1	15410	8.9	10
1	15584	9	10
1	15758	9.1	10
1	15932	9.2	10
1	16106	9.3	10
1	16280	9.4	10
1	16454	9.5	10
1	16628	9.6	10
1	16802	9.7	10
1	16976	9.8	10
1	17150	9.9	10
1	17324	10	10
1	17498	10.1	10
1	17672	10.2	10
1	17846	10.3	10
1	18020	10.4	10
1	18194	10.5	10
1	18368	10.6	10
1	18542	10.7	10
1	18716	10.8	10
1	18890	10.9	10
1	19064	11	10
1	19238	11.1	10
1	19412	11.2	10
1	19586	11.3	10
1	19760	11.4	10
1	19934	11.5	10
1	20108	11.6	10
1	20282	11.7	10
1	20456	11.8	10
1	20630	11.9	10
1	20804	12	10
1	20978	12.1	10
1	21152	12.2	10
1	21326	12.3	10
1	21500	12.4	10
1	21674	12.5	10
1	21848	12.6	10
1	22022	12.7	10
1	22196	12.8	10
1	22370	12.9	10
1	22544	13	10
1	22718	13.1	10
1	22892	13.2	10
1	23066	13.3	10
1	23240	13.4	10
1	23414	13.5	10
1	23588	13.6	10
1	23762	13.7	10
1	23936	13.8	10
1	24110	13.9	10
1	24284	14	10
1	24458	14.1	10
1	24632	14.2	10
1	24806	14.3	10
1	24980	14.4	10
1	25154	14.5	10
1	25328	14.6	10
1	25502	14.7	10
1	25676	14.8	10
1	25850	14.9	10
1	26024	15	10
1	26198	15.1	10
1	26372	15.2	10
1	26546	15.3	10
1	26720	15.4	10
1	26894	15.5	10
1	27068	15.6	10
1	27242	15.7	10
1	27416	15.8	10
1	27590	15.9	10
1	27764	16	10
1	27938	16.1	10
1	28112	16.2	10
1	28286	16.3	10
1	28460	16.4	10
1	28634	16.5	10
1	28808	16.6	10
1	28982	16.7	10
1	29156	16.8	10
1	29330	16.9	10
1	29504	17	10
1	29678	17.1	10
1	29852	17.2	10
1	30026	17.3	10
1	30200	17.4	10
1	30374	17.5	10
1	30548	17.6	10
1	30722	17.7	10
1	30896	17.8	10
1	31070	17.9	10
1	31244	18	10
1	31418	18.1	10
1	31592	18.2	10
1	31766	18.3	10
1	31940	18.4	10
1	32114	18.5	10
1	32288	18.6	10
1	32462	18.7	10
1	32636	18.8	10
1	32810	18.9	10
1	32984	19	10
1	33158	19.1	10
1	33332	19.2	10
1	33506	19.3	10
1	33680	19.4	10
1	33854	19.5	10
1	34028	19.6	10
1	34202	19.7	10
1	34376	19.8	10
1	34550	19.9	10
1	34724	20	10
1	34898	20.1	10
1	35072	20.2	10
1	35246	20.3	10
1	35420	20.4	10
1	35594	20.5	10
1	35768	20.6	10
1	35942	20.7	10
1	36116	20.8	10
1	36290	20.9	10
2	5	0.1	10
2	273	0.2	10
2	447	0.3	10
2	621	0.4	10
2	795	0.5	10
2	969	0.6	10
2	1143	0.7	10
2	1317	0.8	10
2	1491	0.9	10
2	1665	1	10
2	1839	1.1	10
2	2013	1.2	10
2	2187	1.3	10
2	2361	1.4	10
2	2535	1.5	10
2	2709	1.6	10
2	2883	1.7	10
2	3057	1.8	10
2	3231	1.9	10
2	3405	2	10
2	3579	2.1	10
2	3753	2.2	10
2	3927	2.3	10
2	4101	2.4	10
2	4275	2.5	10
2	4449	2.6	10
2	4623	2.7	10
2	4797	2.8	10
2	4971	2.9	10
2	5145	3	10
2	5319	3.1	10
2	5493	3.2	10
2	5667	3.3	10
2	5841	3.4	10
2	6015	3.5	10
2	6189	3.6	10
2	6363	3.7	10
2	6537	3.8	10
2	6711	3.9	10
2	6885	4	10
2	7059	4.1	10
2	7233	4.2	10
2	7407	4.3	10
2	7581	4.4	10
2	7755	4.5	10
2	7929	4.6	10
2	8103	4.7	10
2	8277	4.8	10
2	8451	4.9	10
2	8625	5	10
2	8799	5.1	10
2	8973	5.2	10
2	9147	5.3	10
2	9321	5.4	10
2	9495	5.5	10
2	9669	5.6	10
2	9843	5.7	10
2	10017	5.8	10
2	10191	5.9	10
2	10365	6	10
2	10539	6.1	10
2	10713	6.2	10
2	10887	6.3	10
2	11061	6.4	10
2	11235	6.5	10
2	11409	6.6	10
2	11583	6.7	10
2	11757	6.8	10
2	11931	6.9	10
2	12105	7	10
2	12279	7.1	10
2	12453	7.2	10
2	12627	7.3	10
2	12801	7.4	10
2	12975	7.5	10
2	13149	7.6	10
2	13323	7.7	10
2	13497	7.8	10
2	13671	7.9	10
2	13845	8	10
2	14019	8.1	10
2	14193	8.2	10
2	14367	8.3	10
2	14541	8.4	10
2	14715	8.5	10
2	14889	8.6	10
2	15063	8.7	10
2	15237	8.8	10
2	15411	8.9	10
2	15585	9	10
2	15759	9.1	10
2	15933	9.2	10
2	16107	9.3	10
2	16281	9.4	10
2	16455	9.5	10
2	16629	9.6	10
2	16803	9.7	10
2	16977	9.8	10
2	17151	9.9	10
2	17325	10	10
2	17499	10.1	10
2	17673	10.2	10
2	17847	10.3	10
2	18021	10.4	10
2	18195	10.5	10
2	18369	10.6	10
2	18543	10.7	10
2	18717	10.8	10
2	18891	10.9	10
2	19065	11	10
2	19239	11.1	10
2	19413	11.2	10
2	19587	11.3	10
2	19761	11.4	10
2	19935	11.5	10
2	20109	11.6	10
2	20283	11.7	10
2	20457	11.8	10
2	20631	11.9	10
2	20805	12	10
2	20979	12.1	10
2	21153	12.2	10
2	21327	12.3	10
2	21501	12.4	10
2	21675	12.5	10
2	21849	12.6	10
2	22023	12.7	10
2	22197	12.8	10
2	22371	12.9	10
2	22545	13	10
2	22719	13.1	10
2	22893	13.2	10
2	23067	13.3	10
2	23241	13.4	10
2	23415	13.5	10
2	23589	13.6	10
2	23763	13.7	10
2	23937	13.8	10
2	24111	13.9	10
2	24285	14	10
2	24459	14.1	10
2	24633	14.2	10
2	24807	14.3	10
2	24981	14.4	10
2	25155	14.5	10
2	25329	14.6	10
2	25503	14.7	10
2	25677	14.8	10
2	25851	14.9	10
2	26025	15	10
2	26199	15.1	10
2	26373	15.2	10
2	26547	15.3	10
2	26721	15.4	10
2	26895	15.5	10
2	27069	15.6	10
2	27243	15.7	10
2	27417	15.8	10
2	27591	15.9	10
2	27765	16	10
2	27939	16.1	10
2	28113	16.2	10
2	28287	16.3	10
2	28461	16.4	10
2	28635	16.5	10
2	28809	16.6	10
2	28983	16.7	10
2	29157	16.8	10
2	29331	16.9	10
2	29505	17	10
2	29679	17.1	10
2	29853	17.2	10
2	30027	17.3	10
2	30201	17.4	10
2	30375	17.5	10
2	30549	17.6	10
2	30723	17.7	10
2	30897	17.8	10
2	31071	17.9	10
2	31245	18	10
2	31419	18.1	10
2	31593	18.2	10
2	31767	18.3	10
2	31941	18.4	10
2	32115	18.5	10
2	32289	18.6	10
2	32463	18.7	10
2	32637	18.8	10
2	32811	18.9	10
2	32985	19	10
2	33159	19.1	10
2	33333	19.2	10
2	33507	19.3	10
2	33681	19.4	10
2	33855	19.5	10
2	34029	19.6	10
2	34203	19.7	10
2	34377	19.8	10
2	34551	19.9	10
2	34725	20	10
2	34899	20.1	10
2	35073	20.2	10
2	35247	20.3	10
2	35421	20.4	10
2	35595	20.5	10
2	35769	20.6	10
2	35943	20.7	10
2	36117	20.8	10
2	36291	20.9	10
3	6	0.1	10
3	274	0.2	10
3	448	0.3	10
3	622	0.4	10
3	796	0.5	10
3	970	0.6	10
3	1144	0.7	10
3	1318	0.8	10
3	1492	0.9	10
3	1666	1	10
3	1840	1.1	10
3	2014	1.2	10
3	2188	1.3	10
3	2362	1.4	10
3	2536	1.5	10
3	2710	1.6	10
3	2884	1.7	10
3	3058	1.8	10
3	3232	1.9	10
3	3406	2	10
3	3580	2.1	10
3	3754	2.2	10
3	3928	2.3	10
3	4102	2.4	10
3	4276	2.5	10
3	4450	2.6	10
3	4624	2.7	10
3	4798	2.8	10
3	4972	2.9	10
3	5146	3	10
3	5320	3.1	10
3	5494	3.2	10
3	5668	3.3	10
3	5842	3.4	10
3	6016	3.5	10
3	6190	3.6	10
3	6364	3.7	10
3	6538	3.8	10
3	6712	3.9	10
3	6886	4	10
3	7060	4.1	10
3	7234	4.2	10
3	7408	4.3	10
3	7582	4.4	10
3	7756	4.5	10
3	7930	4.6	10
3	8104	4.7	10
3	8278	4.8	10
3	8452	4.9	10
3	8626	5	10
3	8800	5.1	10
3	8974	5.2	10
3	9148	5.3	10
3	9322	5.4	10
3	9496	5.5	10
3	9670	5.6	10
3	9844	5.7	10
3	10018	5.8	10
3	10192	5.9	10
3	10366	6	10
3	10540	6.1	10
3	10714	6.2	10
3	10888	6.3	10
3	11062	6.4	10
3	11236	6.5	10
3	11410	6.6	10
3	11584	6.7	10
3	11758	6.8	10
3	11932	6.9	10
3	12106	7	10
3	12280	7.1	10
3	12454	7.2	10
3	12628	7.3	10
3	12802	7.4	10
3	12976	7.5	10
3	13150	7.6	10
3	13324	7.7	10
3	13498	7.8	10
3	13672	7.9	10
3	13846	8	10
3	14020	8.1	10
3	14194	8.2	10
3	14368	8.3	10
3	14542	8.4	10
3	14716	8.5	10
3	14890	8.6	10
3	15064	8.7	10
3	15238	8.8	10
3	15412	8.9	10
3	15586	9	10
3	15760	9.1	10
3	15934	9.2	10
3	16108	9.3	10
3	16282	9.4	10
3	16456	9.5	10
3	16630	9.6	10
3	16804	9.7	10
3	16978	9.8	10
3	17152	9.9	10
3	17326	10	10
3	17500	10.1	10
3	17674	10.2	10
3	17848	10.3	10
3	18022	10.4	10
3	18196	10.5	10
3	18370	10.6	10
3	18544	10.7	10
3	18718	10.8	10
3	18892	10.9	10
3	19066	11	10
3	19240	11.1	10
3	19414	11.2	10
3	19588	11.3	10
3	19762	11.4	10
3	19936	11.5	10
3	20110	11.6	10
3	20284	11.7	10
3	20458	11.8	10
3	20632	11.9	10
3	20806	12	10
3	20980	12.1	10
3	21154	12.2	10
3	21328	12.3	10
3	21502	12.4	10
3	21676	12.5	10
3	21850	12.6	10
3	22024	12.7	10
3	22198	12.8	10
3	22372	12.9	10
3	22546	13	10
3	22720	13.1	10
3	22894	13.2	10
3	23068	13.3	10
3	23242	13.4	10
3	23416	13.5	10
3	23590	13.6	10
3	23764	13.7	10
3	23938	13.8	10
3	24112	13.9	10
3	24286	14	10
3	24460	14.1	10
3	24634	14.2	10
3	24808	14.3	10
3	24982	14.4	10
3	25156	14.5	10
3	25330	14.6	10
3	25504	14.7	10
3	25678	14.8	10
3	25852	14.9	10
3	26026	15	10
3	26200	15.1	10
3	26374	15.2	10
3	26548	15.3	10
3	26722	15.4	10
3	26896	15.5	10
3	27070	15.6	10
3	27244	15.7	10
3	27418	15.8	10
3	27592	15.9	10
3	27766	16	10
3	27940	16.1	10
3	28114	16.2	10
3	28288	16.3	10
3	28462	16.4	10
3	28636	16.5	10
3	28810	16.6	10
3	28984	16.7	10
3	29158	16.8	10
3	29332	16.9	10
3	29506	17	10
3	29680	17.1	10
3	29854	17.2	10
3	30028	17.3	10
3	30202	17.4	10
3	30376	17.5	10
3	30550	17.6	10
3	30724	17.7	10
3	30898	17.8	10
3	31072	17.9	10
3	31246	18	10
3	31420	18.1	10
3	31594	18.2	10
3	31768	18.3	10
3	31942	18.4	10
3	32116	18.5	10
3	32290	18.6	10
3	32464	18.7	10
3	32638	18.8	10
3	32812	18.9	10
3	32986	19	10
3	33160	19.1	10
3	33334	19.2	10
3	33508	19.3	10
3	33682	19.4	10
3	33856	19.5	10
3	34030	19.6	10
3	34204	19.7	10
3	34378	19.8	10
3	34552	19.9	10
3	34726	20	10
3	34900	20.1	10
3	35074	20.2	10
3	35248	20.3	10
3	35422	20.4	10
3	35596	20.5	10
3	35770	20.6	10
3	35944	20.7	10
3	36118	20.8	10
3	36292	20.9	10
4	8	0.1	18
4	275	0.2	18
4	449	0.3	18
4	623	0.4	18
4	797	0.5	18
4	971	0.6	18
4	1145	0.7	18
4	1319	0.8	18
4	1493	0.9	18
4	1667	1	18
4	1841	1.1	18
4	2015	1.2	18
4	2189	1.3	18
4	2363	1.4	18
4	2537	1.5	18
4	2711	1.6	18
4	2885	1.7	18
4	3059	1.8	18
4	3233	1.9	18
4	3407	2	18
4	3581	2.1	18
4	3755	2.2	18
4	3929	2.3	18
4	4103	2.4	18
4	4277	2.5	18
4	4451	2.6	18
4	4625	2.7	18
4	4799	2.8	18
4	4973	2.9	18
4	5147	3	18
4	5321	3.1	18
4	5495	3.2	18
4	5669	3.3	18
4	5843	3.4	18
4	6017	3.5	18
4	6191	3.6	18
4	6365	3.7	18
4	6539	3.8	18
4	6713	3.9	18
4	6887	4	18
4	7061	4.1	18
4	7235	4.2	18
4	7409	4.3	18
4	7583	4.4	18
4	7757	4.5	18
4	7931	4.6	18
4	8105	4.7	18
4	8279	4.8	18
4	8453	4.9	18
4	8627	5	18
4	8801	5.1	18
4	8975	5.2	18
4	9149	5.3	18
4	9323	5.4	18
4	9497	5.5	18
4	9671	5.6	18
4	9845	5.7	18
4	10019	5.8	18
4	10193	5.9	18
4	10367	6	18
4	10541	6.1	18
4	10715	6.2	18
4	10889	6.3	18
4	11063	6.4	18
4	11237	6.5	18
4	11411	6.6	18
4	11585	6.7	18
4	11759	6.8	18
4	11933	6.9	18
4	12107	7	18
4	12281	7.1	18
4	12455	7.2	18
4	12629	7.3	18
4	12803	7.4	18
4	12977	7.5	18
4	13151	7.6	18
4	13325	7.7	18
4	13499	7.8	18
4	13673	7.9	18
4	13847	8	18
4	14021	8.1	18
4	14195	8.2	18
4	14369	8.3	18
4	14543	8.4	18
4	14717	8.5	18
4	14891	8.6	18
4	15065	8.7	18
4	15239	8.8	18
4	15413	8.9	18
4	15587	9	18
4	15761	9.1	18
4	15935	9.2	18
4	16109	9.3	18
4	16283	9.4	18
4	16457	9.5	18
4	16631	9.6	18
4	16805	9.7	18
4	16979	9.8	18
4	17153	9.9	18
4	17327	10	18
4	17501	10.1	18
4	17675	10.2	18
4	17849	10.3	18
4	18023	10.4	18
4	18197	10.5	18
4	18371	10.6	18
4	18545	10.7	18
4	18719	10.8	18
4	18893	10.9	18
4	19067	11	18
4	19241	11.1	18
4	19415	11.2	18
4	19589	11.3	18
4	19763	11.4	18
4	19937	11.5	18
4	20111	11.6	18
4	20285	11.7	18
4	20459	11.8	18
4	20633	11.9	18
4	20807	12	18
4	20981	12.1	18
4	21155	12.2	18
4	21329	12.3	18
4	21503	12.4	18
4	21677	12.5	18
4	21851	12.6	18
4	22025	12.7	18
4	22199	12.8	18
4	22373	12.9	18
4	22547	13	18
4	22721	13.1	18
4	22895	13.2	18
4	23069	13.3	18
4	23243	13.4	18
4	23417	13.5	18
4	23591	13.6	18
4	23765	13.7	18
4	23939	13.8	18
4	24113	13.9	18
4	24287	14	18
4	24461	14.1	18
4	24635	14.2	18
4	24809	14.3	18
4	24983	14.4	18
4	25157	14.5	18
4	25331	14.6	18
4	25505	14.7	18
4	25679	14.8	18
4	25853	14.9	18
4	26027	15	18
4	26201	15.1	18
4	26375	15.2	18
4	26549	15.3	18
4	26723	15.4	18
4	26897	15.5	18
4	27071	15.6	18
4	27245	15.7	18
4	27419	15.8	18
4	27593	15.9	18
4	27767	16	18
4	27941	16.1	18
4	28115	16.2	18
4	28289	16.3	18
4	28463	16.4	18
4	28637	16.5	18
4	28811	16.6	18
4	28985	16.7	18
4	29159	16.8	18
4	29333	16.9	18
4	29507	17	18
4	29681	17.1	18
4	29855	17.2	18
4	30029	17.3	18
4	30203	17.4	18
4	30377	17.5	18
4	30551	17.6	18
4	30725	17.7	18
4	30899	17.8	18
4	31073	17.9	18
4	31247	18	18
4	31421	18.1	18
4	31595	18.2	18
4	31769	18.3	18
4	31943	18.4	18
4	32117	18.5	18
4	32291	18.6	18
4	32465	18.7	18
4	32639	18.8	18
4	32813	18.9	18
4	32987	19	18
4	33161	19.1	18
4	33335	19.2	18
4	33509	19.3	18
4	33683	19.4	18
4	33857	19.5	18
4	34031	19.6	18
4	34205	19.7	18
4	34379	19.8	18
4	34553	19.9	18
4	34727	20	18
4	34901	20.1	18
4	35075	20.2	18
4	35249	20.3	18
4	35423	20.4	18
4	35597	20.5	18
4	35771	20.6	18
4	35945	20.7	18
4	36119	20.8	18
4	36293	20.9	18
5	10	0.1	18
5	276	0.2	18
5	450	0.3	18
5	624	0.4	18
5	798	0.5	18
5	972	0.6	18
5	1146	0.7	18
5	1320	0.8	18
5	1494	0.9	18
5	1668	1	18
5	1842	1.1	18
5	2016	1.2	18
5	2190	1.3	18
5	2364	1.4	18
5	2538	1.5	18
5	2712	1.6	18
5	2886	1.7	18
5	3060	1.8	18
5	3234	1.9	18
5	3408	2	18
5	3582	2.1	18
5	3756	2.2	18
5	3930	2.3	18
5	4104	2.4	18
5	4278	2.5	18
5	4452	2.6	18
5	4626	2.7	18
5	4800	2.8	18
5	4974	2.9	18
5	5148	3	18
5	5322	3.1	18
5	5496	3.2	18
5	5670	3.3	18
5	5844	3.4	18
5	6018	3.5	18
5	6192	3.6	18
5	6366	3.7	18
5	6540	3.8	18
5	6714	3.9	18
5	6888	4	18
5	7062	4.1	18
5	7236	4.2	18
5	7410	4.3	18
5	7584	4.4	18
5	7758	4.5	18
5	7932	4.6	18
5	8106	4.7	18
5	8280	4.8	18
5	8454	4.9	18
5	8628	5	18
5	8802	5.1	18
5	8976	5.2	18
5	9150	5.3	18
5	9324	5.4	18
5	9498	5.5	18
5	9672	5.6	18
5	9846	5.7	18
5	10020	5.8	18
5	10194	5.9	18
5	10368	6	18
5	10542	6.1	18
5	10716	6.2	18
5	10890	6.3	18
5	11064	6.4	18
5	11238	6.5	18
5	11412	6.6	18
5	11586	6.7	18
5	11760	6.8	18
5	11934	6.9	18
5	12108	7	18
5	12282	7.1	18
5	12456	7.2	18
5	12630	7.3	18
5	12804	7.4	18
5	12978	7.5	18
5	13152	7.6	18
5	13326	7.7	18
5	13500	7.8	18
5	13674	7.9	18
5	13848	8	18
5	14022	8.1	18
5	14196	8.2	18
5	14370	8.3	18
5	14544	8.4	18
5	14718	8.5	18
5	14892	8.6	18
5	15066	8.7	18
5	15240	8.8	18
5	15414	8.9	18
5	15588	9	18
5	15762	9.1	18
5	15936	9.2	18
5	16110	9.3	18
5	16284	9.4	18
5	16458	9.5	18
5	16632	9.6	18
5	16806	9.7	18
5	16980	9.8	18
5	17154	9.9	18
5	17328	10	18
5	17502	10.1	18
5	17676	10.2	18
5	17850	10.3	18
5	18024	10.4	18
5	18198	10.5	18
5	18372	10.6	18
5	18546	10.7	18
5	18720	10.8	18
5	18894	10.9	18
5	19068	11	18
5	19242	11.1	18
5	19416	11.2	18
5	19590	11.3	18
5	19764	11.4	18
5	19938	11.5	18
5	20112	11.6	18
5	20286	11.7	18
5	20460	11.8	18
5	20634	11.9	18
5	20808	12	18
5	20982	12.1	18
5	21156	12.2	18
5	21330	12.3	18
5	21504	12.4	18
5	21678	12.5	18
5	21852	12.6	18
5	22026	12.7	18
5	22200	12.8	18
5	22374	12.9	18
5	22548	13	18
5	22722	13.1	18
5	22896	13.2	18
5	23070	13.3	18
5	23244	13.4	18
5	23418	13.5	18
5	23592	13.6	18
5	23766	13.7	18
5	23940	13.8	18
5	24114	13.9	18
5	24288	14	18
5	24462	14.1	18
5	24636	14.2	18
5	24810	14.3	18
5	24984	14.4	18
5	25158	14.5	18
5	25332	14.6	18
5	25506	14.7	18
5	25680	14.8	18
5	25854	14.9	18
5	26028	15	18
5	26202	15.1	18
5	26376	15.2	18
5	26550	15.3	18
5	26724	15.4	18
5	26898	15.5	18
5	27072	15.6	18
5	27246	15.7	18
5	27420	15.8	18
5	27594	15.9	18
5	27768	16	18
5	27942	16.1	18
5	28116	16.2	18
5	28290	16.3	18
5	28464	16.4	18
5	28638	16.5	18
5	28812	16.6	18
5	28986	16.7	18
5	29160	16.8	18
5	29334	16.9	18
5	29508	17	18
5	29682	17.1	18
5	29856	17.2	18
5	30030	17.3	18
5	30204	17.4	18
5	30378	17.5	18
5	30552	17.6	18
5	30726	17.7	18
5	30900	17.8	18
5	31074	17.9	18
5	31248	18	18
5	31422	18.1	18
5	31596	18.2	18
5	31770	18.3	18
5	31944	18.4	18
5	32118	18.5	18
5	32292	18.6	18
5	32466	18.7	18
5	32640	18.8	18
5	32814	18.9	18
5	32988	19	18
5	33162	19.1	18
5	33336	19.2	18
5	33510	19.3	18
5	33684	19.4	18
5	33858	19.5	18
5	34032	19.6	18
5	34206	19.7	18
5	34380	19.8	18
5	34554	19.9	18
5	34728	20	18
5	34902	20.1	18
5	35076	20.2	18
5	35250	20.3	18
5	35424	20.4	18
5	35598	20.5	18
5	35772	20.6	18
5	35946	20.7	18
5	36120	20.8	18
5	36294	20.9	18
6	12	0.1	18
6	277	0.2	18
6	451	0.3	18
6	625	0.4	18
6	799	0.5	18
6	973	0.6	18
6	1147	0.7	18
6	1321	0.8	18
6	1495	0.9	18
6	1669	1	18
6	1843	1.1	18
6	2017	1.2	18
6	2191	1.3	18
6	2365	1.4	18
6	2539	1.5	18
6	2713	1.6	18
6	2887	1.7	18
6	3061	1.8	18
6	3235	1.9	18
6	3409	2	18
6	3583	2.1	18
6	3757	2.2	18
6	3931	2.3	18
6	4105	2.4	18
6	4279	2.5	18
6	4453	2.6	18
6	4627	2.7	18
6	4801	2.8	18
6	4975	2.9	18
6	5149	3	18
6	5323	3.1	18
6	5497	3.2	18
6	5671	3.3	18
6	5845	3.4	18
6	6019	3.5	18
6	6193	3.6	18
6	6367	3.7	18
6	6541	3.8	18
6	6715	3.9	18
6	6889	4	18
6	7063	4.1	18
6	7237	4.2	18
6	7411	4.3	18
6	7585	4.4	18
6	7759	4.5	18
6	7933	4.6	18
6	8107	4.7	18
6	8281	4.8	18
6	8455	4.9	18
6	8629	5	18
6	8803	5.1	18
6	8977	5.2	18
6	9151	5.3	18
6	9325	5.4	18
6	9499	5.5	18
6	9673	5.6	18
6	9847	5.7	18
6	10021	5.8	18
6	10195	5.9	18
6	10369	6	18
6	10543	6.1	18
6	10717	6.2	18
6	10891	6.3	18
6	11065	6.4	18
6	11239	6.5	18
6	11413	6.6	18
6	11587	6.7	18
6	11761	6.8	18
6	11935	6.9	18
6	12109	7	18
6	12283	7.1	18
6	12457	7.2	18
6	12631	7.3	18
6	12805	7.4	18
6	12979	7.5	18
6	13153	7.6	18
6	13327	7.7	18
6	13501	7.8	18
6	13675	7.9	18
6	13849	8	18
6	14023	8.1	18
6	14197	8.2	18
6	14371	8.3	18
6	14545	8.4	18
6	14719	8.5	18
6	14893	8.6	18
6	15067	8.7	18
6	15241	8.8	18
6	15415	8.9	18
6	15589	9	18
6	15763	9.1	18
6	15937	9.2	18
6	16111	9.3	18
6	16285	9.4	18
6	16459	9.5	18
6	16633	9.6	18
6	16807	9.7	18
6	16981	9.8	18
6	17155	9.9	18
6	17329	10	18
6	17503	10.1	18
6	17677	10.2	18
6	17851	10.3	18
6	18025	10.4	18
6	18199	10.5	18
6	18373	10.6	18
6	18547	10.7	18
6	18721	10.8	18
6	18895	10.9	18
6	19069	11	18
6	19243	11.1	18
6	19417	11.2	18
6	19591	11.3	18
6	19765	11.4	18
6	19939	11.5	18
6	20113	11.6	18
6	20287	11.7	18
6	20461	11.8	18
6	20635	11.9	18
6	20809	12	18
6	20983	12.1	18
6	21157	12.2	18
6	21331	12.3	18
6	21505	12.4	18
6	21679	12.5	18
6	21853	12.6	18
6	22027	12.7	18
6	22201	12.8	18
6	22375	12.9	18
6	22549	13	18
6	22723	13.1	18
6	22897	13.2	18
6	23071	13.3	18
6	23245	13.4	18
6	23419	13.5	18
6	23593	13.6	18
6	23767	13.7	18
6	23941	13.8	18
6	24115	13.9	18
6	24289	14	18
6	24463	14.1	18
6	24637	14.2	18
6	24811	14.3	18
6	24985	14.4	18
6	25159	14.5	18
6	25333	14.6	18
6	25507	14.7	18
6	25681	14.8	18
6	25855	14.9	18
6	26029	15	18
6	26203	15.1	18
6	26377	15.2	18
6	26551	15.3	18
6	26725	15.4	18
6	26899	15.5	18
6	27073	15.6	18
6	27247	15.7	18
6	27421	15.8	18
6	27595	15.9	18
6	27769	16	18
6	27943	16.1	18
6	28117	16.2	18
6	28291	16.3	18
6	28465	16.4	18
6	28639	16.5	18
6	28813	16.6	18
6	28987	16.7	18
6	29161	16.8	18
6	29335	16.9	18
6	29509	17	18
6	29683	17.1	18
6	29857	17.2	18
6	30031	17.3	18
6	30205	17.4	18
6	30379	17.5	18
6	30553	17.6	18
6	30727	17.7	18
6	30901	17.8	18
6	31075	17.9	18
6	31249	18	18
6	31423	18.1	18
6	31597	18.2	18
6	31771	18.3	18
6	31945	18.4	18
6	32119	18.5	18
6	32293	18.6	18
6	32467	18.7	18
6	32641	18.8	18
6	32815	18.9	18
6	32989	19	18
6	33163	19.1	18
6	33337	19.2	18
6	33511	19.3	18
6	33685	19.4	18
6	33859	19.5	18
6	34033	19.6	18
6	34207	19.7	18
6	34381	19.8	18
6	34555	19.9	18
6	34729	20	18
6	34903	20.1	18
6	35077	20.2	18
6	35251	20.3	18
6	35425	20.4	18
6	35599	20.5	18
6	35773	20.6	18
6	35947	20.7	18
6	36121	20.8	18
6	36295	20.9	18
7	14	0.1	18
7	278	0.2	18
7	452	0.3	18
7	626	0.4	18
7	800	0.5	18
7	974	0.6	18
7	1148	0.7	18
7	1322	0.8	18
7	1496	0.9	18
7	1670	1	18
7	1844	1.1	18
7	2018	1.2	18
7	2192	1.3	18
7	2366	1.4	18
7	2540	1.5	18
7	2714	1.6	18
7	2888	1.7	18
7	3062	1.8	18
7	3236	1.9	18
7	3410	2	18
7	3584	2.1	18
7	3758	2.2	18
7	3932	2.3	18
7	4106	2.4	18
7	4280	2.5	18
7	4454	2.6	18
7	4628	2.7	18
7	4802	2.8	18
7	4976	2.9	18
7	5150	3	18
7	5324	3.1	18
7	5498	3.2	18
7	5672	3.3	18
7	5846	3.4	18
7	6020	3.5	18
7	6194	3.6	18
7	6368	3.7	18
7	6542	3.8	18
7	6716	3.9	18
7	6890	4	18
7	7064	4.1	18
7	7238	4.2	18
7	7412	4.3	18
7	7586	4.4	18
7	7760	4.5	18
7	7934	4.6	18
7	8108	4.7	18
7	8282	4.8	18
7	8456	4.9	18
7	8630	5	18
7	8804	5.1	18
7	8978	5.2	18
7	9152	5.3	18
7	9326	5.4	18
7	9500	5.5	18
7	9674	5.6	18
7	9848	5.7	18
7	10022	5.8	18
7	10196	5.9	18
7	10370	6	18
7	10544	6.1	18
7	10718	6.2	18
7	10892	6.3	18
7	11066	6.4	18
7	11240	6.5	18
7	11414	6.6	18
7	11588	6.7	18
7	11762	6.8	18
7	11936	6.9	18
7	12110	7	18
7	12284	7.1	18
7	12458	7.2	18
7	12632	7.3	18
7	12806	7.4	18
7	12980	7.5	18
7	13154	7.6	18
7	13328	7.7	18
7	13502	7.8	18
7	13676	7.9	18
7	13850	8	18
7	14024	8.1	18
7	14198	8.2	18
7	14372	8.3	18
7	14546	8.4	18
7	14720	8.5	18
7	14894	8.6	18
7	15068	8.7	18
7	15242	8.8	18
7	15416	8.9	18
7	15590	9	18
7	15764	9.1	18
7	15938	9.2	18
7	16112	9.3	18
7	16286	9.4	18
7	16460	9.5	18
7	16634	9.6	18
7	16808	9.7	18
7	16982	9.8	18
7	17156	9.9	18
7	17330	10	18
7	17504	10.1	18
7	17678	10.2	18
7	17852	10.3	18
7	18026	10.4	18
7	18200	10.5	18
7	18374	10.6	18
7	18548	10.7	18
7	18722	10.8	18
7	18896	10.9	18
7	19070	11	18
7	19244	11.1	18
7	19418	11.2	18
7	19592	11.3	18
7	19766	11.4	18
7	19940	11.5	18
7	20114	11.6	18
7	20288	11.7	18
7	20462	11.8	18
7	20636	11.9	18
7	20810	12	18
7	20984	12.1	18
7	21158	12.2	18
7	21332	12.3	18
7	21506	12.4	18
7	21680	12.5	18
7	21854	12.6	18
7	22028	12.7	18
7	22202	12.8	18
7	22376	12.9	18
7	22550	13	18
7	22724	13.1	18
7	22898	13.2	18
7	23072	13.3	18
7	23246	13.4	18
7	23420	13.5	18
7	23594	13.6	18
7	23768	13.7	18
7	23942	13.8	18
7	24116	13.9	18
7	24290	14	18
7	24464	14.1	18
7	24638	14.2	18
7	24812	14.3	18
7	24986	14.4	18
7	25160	14.5	18
7	25334	14.6	18
7	25508	14.7	18
7	25682	14.8	18
7	25856	14.9	18
7	26030	15	18
7	26204	15.1	18
7	26378	15.2	18
7	26552	15.3	18
7	26726	15.4	18
7	26900	15.5	18
7	27074	15.6	18
7	27248	15.7	18
7	27422	15.8	18
7	27596	15.9	18
7	27770	16	18
7	27944	16.1	18
7	28118	16.2	18
7	28292	16.3	18
7	28466	16.4	18
7	28640	16.5	18
7	28814	16.6	18
7	28988	16.7	18
7	29162	16.8	18
7	29336	16.9	18
7	29510	17	18
7	29684	17.1	18
7	29858	17.2	18
7	30032	17.3	18
7	30206	17.4	18
7	30380	17.5	18
7	30554	17.6	18
7	30728	17.7	18
7	30902	17.8	18
7	31076	17.9	18
7	31250	18	18
7	31424	18.1	18
7	31598	18.2	18
7	31772	18.3	18
7	31946	18.4	18
7	32120	18.5	18
7	32294	18.6	18
7	32468	18.7	18
7	32642	18.8	18
7	32816	18.9	18
7	32990	19	18
7	33164	19.1	18
7	33338	19.2	18
7	33512	19.3	18
7	33686	19.4	18
7	33860	19.5	18
7	34034	19.6	18
7	34208	19.7	18
7	34382	19.8	18
7	34556	19.9	18
7	34730	20	18
7	34904	20.1	18
7	35078	20.2	18
7	35252	20.3	18
7	35426	20.4	18
7	35600	20.5	18
7	35774	20.6	18
7	35948	20.7	18
7	36122	20.8	18
7	36296	20.9	18
8	15	0.1	28
9	16	0.1	28
10	17	0.1	28
11	18	0.1	28
12	19	0.1	28
12	83	0.100125	38
12	283	0.2	38
12	457	0.3	38
12	631	0.4	38
12	805	0.5	38
12	979	0.6	38
12	1153	0.7	38
12	1327	0.8	38
12	1501	0.9	38
12	1675	1	38
12	1849	1.1	38
12	2023	1.2	38
12	2197	1.3	38
12	2371	1.4	38
12	2545	1.5	38
12	2719	1.6	38
12	2893	1.7	38
12	3067	1.8	38
12	3241	1.9	38
12	3415	2	38
12	3589	2.1	38
12	3763	2.2	38
12	3937	2.3	38
12	4111	2.4	38
12	4285	2.5	38
12	4459	2.6	38
12	4633	2.7	38
12	4807	2.8	38
12	4981	2.9	38
12	5155	3	38
12	5329	3.1	38
12	5503	3.2	38
12	5677	3.3	38
12	5851	3.4	38
12	6025	3.5	38
12	6199	3.6	38
12	6373	3.7	38
12	6547	3.8	38
12	6721	3.9	38
12	6895	4	38
12	7069	4.1	38
12	7243	4.2	38
12	7417	4.3	38
12	7591	4.4	38
12	7765	4.5	38
12	7939	4.6	38
12	8113	4.7	38
12	8287	4.8	38
12	8461	4.9	38
12	8635	5	38
12	8809	5.1	38
12	8983	5.2	38
12	9157	5.3	38
12	9331	5.4	38
12	9505	5.5	38
12	9679	5.6	38
12	9853	5.7	38
12	10027	5.8	38
12	10201	5.9	38
12	10375	6	38
12	10549	6.1	38
12	10723	6.2	38
12	10897	6.3	38
12	11071	6.4	38
12	11245	6.5	38
12	11419	6.6	38
12	11593	6.7	38
12	11767	6.8	38
12	11941	6.9	38
12	12115	7	38
12	12289	7.1	38
12	12463	7.2	38
12	12637	7.3	38
12	12811	7.4	38
12	12985	7.5	38
12	13159	7.6	38
12	13333	7.7	38
12	13507	7.8	38
12	13681	7.9	38
12	13855	8	38
12	14029	8.1	38
12	14203	8.2	38
12	14377	8.3	38
12	14551	8.4	38
12	14725	8.5	38
12	14899	8.6	38
12	15073	8.7	38
12	15247	8.8	38
12	15421	8.9	38
12	15595	9	38
12	15769	9.1	38
12	15943	9.2	38
12	16117	9.3	38
12	16291	9.4	38
12	16465	9.5	38
12	16639	9.6	38
12	16813	9.7	38
12	16987	9.8	38
12	17161	9.9	38
12	17335	10	38
12	17509	10.1	38
12	17683	10.2	38
12	17857	10.3	38
12	18031	10.4	38
12	18205	10.5	38
12	18379	10.6	38
12	18553	10.7	38
12	18727	10.8	38
12	18901	10.9	38
12	19075	11	38
12	19249	11.1	38
12	19423	11.2	38
12	19597	11.3	38
12	19771	11.4	38
12	19945	11.5	38
12	20119	11.6	38
12	20293	11.7	38
12	20467	11.8	38
12	20641	11.9	38
12	20815	12	38
12	20989	12.1	38
12	21163	12.2	38
12	21337	12.3	38
12	21511	12.4	38
12	21685	12.5	38
12	21859	12.6	38
12	22033	12.7	38
12	22207	12.8	38
12	22381	12.9	38
12	22555	13	38
12	22729	13.1	38
12	22903	13.2	38
12	23077	13.3	38
12	23251	13.4	38
12	23425	13.5	38
12	23599	13.6	38
12	23773	13.7	38
12	23947	13.8	38
12	24121	13.9	38
12	24295	14	38
12	24469	14.1	38
12	24643	14.2	38
12	24817	14.3	38
12	24991	14.4	38
12	25165	14.5	38
12	25339	14.6	38
12	25513	14.7	38
12	25687	14.8	38
12	25861	14.9	38
12	26035	15	38
12	26209	15.1	38
12	26383	15.2	38
12	26557	15.3	38
12	26731	15.4	38
12	26905	15.5	38
12	27079	15.6	38
12	27253	15.7	38
12	27427	15.8	38
12	27601	15.9	38
12	27775	16	38
12	27949	16.1	38
12	28123	16.2	38
12	28297	16.3	38
12	28471	16.4	38
12	28645	16.5	38
12	28819	16.6	38
12	28993	16.7	38
12	29167	16.8	38
12	29341	16.9	38
12	29515	17	38
12	29689	17.1	38
12	29863	17.2	38
12	30037	17.3	38
12	30211	17.4	38
12	30385	17.5	38
12	30559	17.6	38
12	30733	17.7	38
12	30907	17.8	38
12	31081	17.9	38
12	31255	18	38
12	31429	18.1	38
12	31603	18.2	38
12	31777	18.3	38
12	31951	18.4	38
12	32125	18.5	38
12	32299	18.6	38
12	32473	18.7	38
12	32647	18.8	38
12	32821	18.9	38
12	32995	19	38
12	33169	19.1	38
12	33343	19.2	38
12	33517	19.3	38
12	33691	19.4	38
12	33865	19.5	38
12	34039	19.6	38
12	34213	19.7	38
12	34387	19.8	38
12	34561	19.9	38
12	34735	20	38
12	34909	20.1	38
12	35083	20.2	38
12	35257	20.3	38
12	35431	20.4	38
12	35605	20.5	38
12	35779	20.6	38
12	35953	20.7	38
12	36127	20.8	38
12	36301	20.9	38
13	20	0.1	28
13	84	0.100125	38
13	284	0.2	38
13	458	0.3	38
13	632	0.4	38
13	806	0.5	38
13	980	0.6	38
13	1154	0.7	38
13	1328	0.8	38
13	1502	0.9	38
13	1676	1	38
13	1850	1.1	38
13	2024	1.2	38
13	2198	1.3	38
13	2372	1.4	38
13	2546	1.5	38
13	2720	1.6	38
13	2894	1.7	38
13	3068	1.8	38
13	3242	1.9	38
13	3416	2	38
13	3590	2.1	38
13	3764	2.2	38
13	3938	2.3	38
13	4112	2.4	38
13	4286	2.5	38
13	4460	2.6	38
13	4634	2.7	38
13	4808	2.8	38
13	4982	2.9	38
13	5156	3	38
13	5330	3.1	38
13	5504	3.2	38
13	5678	3.3	38
13	5852	3.4	38
13	6026	3.5	38
13	6200	3.6	38
13	6374	3.7	38
13	6548	3.8	38
13	6722	3.9	38
13	6896	4	38
13	7070	4.1	38
13	7244	4.2	38
13	7418	4.3	38
13	7592	4.4	38
13	7766	4.5	38
13	7940	4.6	38
13	8114	4.7	38
13	8288	4.8	38
13	8462	4.9	38
13	8636	5	38
13	8810	5.1	38
13	8984	5.2	38
13	9158	5.3	38
13	9332	5.4	38
13	9506	5.5	38
13	9680	5.6	38
13	9854	5.7	38
13	10028	5.8	38
13	10202	5.9	38
13	10376	6	38
13	10550	6.1	38
13	10724	6.2	38
13	10898	6.3	38
13	11072	6.4	38
13	11246	6.5	38
13	11420	6.6	38
13	11594	6.7	38
13	11768	6.8	38
13	11942	6.9	38
13	12116	7	38
13	12290	7.1	38
13	12464	7.2	38
13	12638	7.3	38
13	12812	7.4	38
13	12986	7.5	38
13	13160	7.6	38
13	13334	7.7	38
13	13508	7.8	38
13	13682	7.9	38
13	13856	8	38
13	14030	8.1	38
13	14204	8.2	38
13	14378	8.3	38
13	14552	8.4	38
13	14726	8.5	38
13	14900	8.6	38
13	15074	8.7	38
13	15248	8.8	38
13	15422	8.9	38
13	15596	9	38
13	15770	9.1	38
13	15944	9.2	38
13	16118	9.3	38
13	16292	9.4	38
13	16466	9.5	38
13	16640	9.6	38
13	16814	9.7	38
13	16988	9.8	38
13	17162	9.9	38
13	17336	10	38
13	17510	10.1	38
13	17684	10.2	38
13	17858	10.3	38
13	18032	10.4	38
13	18206	10.5	38
13	18380	10.6	38
13	18554	10.7	38
13	18728	10.8	38
13	18902	10.9	38
13	19076	11	38
13	19250	11.1	38
13	19424	11.2	38
13	19598	11.3	38
13	19772	11.4	38
13	19946	11.5	38
13	20120	11.6	38
13	20294	11.7	38
13	20468	11.8	38
13	20642	11.9	38
13	20816	12	38
13	20990	12.1	38
13	21164	12.2	38
13	21338	12.3	38
13	21512	12.4	38
13	21686	12.5	38
13	21860	12.6	38
13	22034	12.7	38
13	22208	12.8	38
13	22382	12.9	38
13	22556	13	38
13	22730	13.1	38
13	22904	13.2	38
13	23078	13.3	38
13	23252	13.4	38
13	23426	13.5	38
13	23600	13.6	38
13	23774	13.7	38
13	23948	13.8	38
13	24122	13.9	38
13	24296	14	38
13	24470	14.1	38
13	24644	14.2	38
13	24818	14.3	38
13	24992	14.4	38
13	25166	14.5	38
13	25340	14.6	38
13	25514	14.7	38
13	25688	14.8	38
13	25862	14.9	38
13	26036	15	38
13	26210	15.1	38
13	26384	15.2	38
13	26558	15.3	38
13	26732	15.4	38
13	26906	15.5	38
13	27080	15.6	38
13	27254	15.7	38
13	27428	15.8	38
13	27602	15.9	38
13	27776	16	38
13	27950	16.1	38
13	28124	16.2	38
13	28298	16.3	38
13	28472	16.4	38
13	28646	16.5	38
13	28820	16.6	38
13	28994	16.7	38
13	29168	16.8	38
13	29342	16.9	38
13	29516	17	38
13	29690	17.1	38
13	29864	17.2	38
13	30038	17.3	38
13	30212	17.4	38
13	30386	17.5	38
13	30560	17.6	38
13	30734	17.7	38
13	30908	17.8	38
13	31082	17.9	38
13	31256	18	38
13	31430	18.1	38
13	31604	18.2	38
13	31778	18.3	38
13	31952	18.4	38
13	32126	18.5	38
13	32300	18.6	38
13	32474	18.7	38
13	32648	18.8	38
13	32822	18.9	38
13	32996	19	38
13	33170	19.1	38
13	33344	19.2	38
13	33518	19.3	38
13	33692	19.4	38
13	33866	19.5	38
13	34040	19.6	38
13	34214	19.7	38
13	34388	19.8	38
13	34562	19.9	38
13	34736	20	38
13	34910	20.1	38
13	35084	20.2	38
13	35258	20.3	38
13	35432	20.4	38
13	35606	20.5	38
13	35780	20.6	38
13	35954	20.7	38
13	36128	20.8	38
13	36302	20.9	38
14	21	0.1	28
14	85	0.100125	38
14	285	0.2	38
14	459	0.3	38
14	633	0.4	38
14	807	0.5	38
14	981	0.6	38
14	1155	0.7	38
14	1329	0.8	38
14	1503	0.9	38
14	1677	1	38
14	1851	1.1	38
14	2025	1.2	38
14	2199	1.3	38
14	2373	1.4	38
14	2547	1.5	38
14	2721	1.6	38
14	2895	1.7	38
14	3069	1.8	38
14	3243	1.9	38
14	3417	2	38
14	3591	2.1	38
14	3765	2.2	38
14	3939	2.3	38
14	4113	2.4	38
14	4287	2.5	38
14	4461	2.6	38
14	4635	2.7	38
14	4809	2.8	38
14	4983	2.9	38
14	5157	3	38
14	5331	3.1	38
14	5505	3.2	38
14	5679	3.3	38
14	5853	3.4	38
14	6027	3.5	38
14	6201	3.6	38
14	6375	3.7	38
14	6549	3.8	38
14	6723	3.9	38
14	6897	4	38
14	7071	4.1	38
14	7245	4.2	38
14	7419	4.3	38
14	7593	4.4	38
14	7767	4.5	38
14	7941	4.6	38
14	8115	4.7	38
14	8289	4.8	38
14	8463	4.9	38
14	8637	5	38
14	8811	5.1	38
14	8985	5.2	38
14	9159	5.3	38
14	9333	5.4	38
14	9507	5.5	38
14	9681	5.6	38
14	9855	5.7	38
14	10029	5.8	38
14	10203	5.9	38
14	10377	6	38
14	10551	6.1	38
14	10725	6.2	38
14	10899	6.3	38
14	11073	6.4	38
14	11247	6.5	38
14	11421	6.6	38
14	11595	6.7	38
14	11769	6.8	38
14	11943	6.9	38
14	12117	7	38
14	12291	7.1	38
14	12465	7.2	38
14	12639	7.3	38
14	12813	7.4	38
14	12987	7.5	38
14	13161	7.6	38
14	13335	7.7	38
14	13509	7.8	38
14	13683	7.9	38
14	13857	8	38
14	14031	8.1	38
14	14205	8.2	38
14	14379	8.3	38
14	14553	8.4	38
14	14727	8.5	38
14	14901	8.6	38
14	15075	8.7	38
14	15249	8.8	38
14	15423	8.9	38
14	15597	9	38
14	15771	9.1	38
14	15945	9.2	38
14	16119	9.3	38
14	16293	9.4	38
14	16467	9.5	38
14	16641	9.6	38
14	16815	9.7	38
14	16989	9.8	38
14	17163	9.9	38
14	17337	10	38
14	17511	10.1	38
14	17685	10.2	38
14	17859	10.3	38
14	18033	10.4	38
14	18207	10.5	38
14	18381	10.6	38
14	18555	10.7	38
14	18729	10.8	38
14	18903	10.9	38
14	19077	11	38
14	19251	11.1	38
14	19425	11.2	38
14	19599	11.3	38
14	19773	11.4	38
14	19947	11.5	38
14	20121	11.6	38
14	20295	11.7	38
14	20469	11.8	38
14	20643	11.9	38
14	20817	12	38
14	20991	12.1	38
14	21165	12.2	38
14	21339	12.3	38
14	21513	12.4	38
14	21687	12.5	38
14	21861	12.6	38
14	22035	12.7	38
14	22209	12.8	38
14	22383	12.9	38
14	22557	13	38
14	22731	13.1	38
14	22905	13.2	38
14	23079	13.3	38
14	23253	13.4	38
14	23427	13.5	38
14	23601	13.6	38
14	23775	13.7	38
14	23949	13.8	38
14	24123	13.9	38
14	24297	14	38
14	24471	14.1	38
14	24645	14.2	38
14	24819	14.3	38
14	24993	14.4	38
14	25167	14.5	38
14	25341	14.6	38
14	25515	14.7	38
14	25689	14.8	38
14	25863	14.9	38
14	26037	15	38
14	26211	15.1	38
14	26385	15.2	38
14	26559	15.3	38
14	26733	15.4	38
14	26907	15.5	38
14	27081	15.6	38
14	27255	15.7	38
14	27429	15.8	38
14	27603	15.9	38
14	27777	16	38
14	27951	16.1	38
14	28125	16.2	38
14	28299	16.3	38
14	28473	16.4	38
14	28647	16.5	38
14	28821	16.6	38
14	28995	16.7	38
14	29169	16.8	38
14	29343	16.9	38
14	29517	17	38
14	29691	17.1	38
14	29865	17.2	38
14	30039	17.3	38
14	30213	17.4	38
14	30387	17.5	38
14	30561	17.6	38
14	30735	17.7	38
14	30909	17.8	38
14	31083	17.9	38
14	31257	18	38
14	31431	18.1	38
14	31605	18.2	38
14	31779	18.3	38
14	31953	18.4	38
14	32127	18.5	38
14	32301	18.6	38
14	32475	18.7	38
14	32649	18.8	38
14	32823	18.9	38
14	32997	19	38
14	33171	19.1	38
14	33345	19.2	38
14	33519	19.3	38
14	33693	19.4	38
14	33867	19.5	38
14	34041	19.6	38
14	34215	19.7	38
14	34389	19.8	38
14	34563	19.9	38
14	34737	20	38
14	34911	20.1	38
14	35085	20.2	38
14	35259	20.3	38
14	35433	20.4	38
14	35607	20.5	38
14	35781	20.6	38
14	35955	20.7	38
14	36129	20.8	38
14	36303	20.9	38
15	22	0.1	28
15	86	0.100125	38
15	286	0.2	38
15	460	0.3	38
15	634	0.4	38
15	808	0.5	38
15	982	0.6	38
15	1156	0.7	38
15	1330	0.8	38
15	1504	0.9	38
15	1678	1	38
15	1852	1.1	38
15	2026	1.2	38
15	2200	1.3	38
15	2374	1.4	38
15	2548	1.5	38
15	2722	1.6	38
15	2896	1.7	38
15	3070	1.8	38
15	3244	1.9	38
15	3418	2	38
15	3592	2.1	38
15	3766	2.2	38
15	3940	2.3	38
15	4114	2.4	38
15	4288	2.5	38
15	4462	2.6	38
15	4636	2.7	38
15	4810	2.8	38
15	4984	2.9	38
15	5158	3	38
15	5332	3.1	38
15	5506	3.2	38
15	5680	3.3	38
15	5854	3.4	38
15	6028	3.5	38
15	6202	3.6	38
15	6376	3.7	38
15	6550	3.8	38
15	6724	3.9	38
15	6898	4	38
15	7072	4.1	38
15	7246	4.2	38
15	7420	4.3	38
15	7594	4.4	38
15	7768	4.5	38
15	7942	4.6	38
15	8116	4.7	38
15	8290	4.8	38
15	8464	4.9	38
15	8638	5	38
15	8812	5.1	38
15	8986	5.2	38
15	9160	5.3	38
15	9334	5.4	38
15	9508	5.5	38
15	9682	5.6	38
15	9856	5.7	38
15	10030	5.8	38
15	10204	5.9	38
15	10378	6	38
15	10552	6.1	38
15	10726	6.2	38
15	10900	6.3	38
15	11074	6.4	38
15	11248	6.5	38
15	11422	6.6	38
15	11596	6.7	38
15	11770	6.8	38
15	11944	6.9	38
15	12118	7	38
15	12292	7.1	38
15	12466	7.2	38
15	12640	7.3	38
15	12814	7.4	38
15	12988	7.5	38
15	13162	7.6	38
15	13336	7.7	38
15	13510	7.8	38
15	13684	7.9	38
15	13858	8	38
15	14032	8.1	38
15	14206	8.2	38
15	14380	8.3	38
15	14554	8.4	38
15	14728	8.5	38
15	14902	8.6	38
15	15076	8.7	38
15	15250	8.8	38
15	15424	8.9	38
15	15598	9	38
15	15772	9.1	38
15	15946	9.2	38
15	16120	9.3	38
15	16294	9.4	38
15	16468	9.5	38
15	16642	9.6	38
15	16816	9.7	38
15	16990	9.8	38
15	17164	9.9	38
15	17338	10	38
15	17512	10.1	38
15	17686	10.2	38
15	17860	10.3	38
15	18034	10.4	38
15	18208	10.5	38
15	18382	10.6	38
15	18556	10.7	38
15	18730	10.8	38
15	18904	10.9	38
15	19078	11	38
15	19252	11.1	38
15	19426	11.2	38
15	19600	11.3	38
15	19774	11.4	38
15	19948	11.5	38
15	20122	11.6	38
15	20296	11.7	38
15	20470	11.8	38
15	20644	11.9	38
15	20818	12	38
15	20992	12.1	38
15	21166	12.2	38
15	21340	12.3	38
15	21514	12.4	38
15	21688	12.5	38
15	21862	12.6	38
15	22036	12.7	38
15	22210	12.8	38
15	22384	12.9	38
15	22558	13	38
15	22732	13.1	38
15	22906	13.2	38
15	23080	13.3	38
15	23254	13.4	38
15	23428	13.5	38
15	23602	13.6	38
15	23776	13.7	38
15	23950	13.8	38
15	24124	13.9	38
15	24298	14	38
15	24472	14.1	38
15	24646	14.2	38
15	24820	14.3	38
15	24994	14.4	38
15	25168	14.5	38
15	25342	14.6	38
15	25516	14.7	38
15	25690	14.8	38
15	25864	14.9	38
15	26038	15	38
15	26212	15.1	38
15	26386	15.2	38
15	26560	15.3	38
15	26734	15.4	38
15	26908	15.5	38
15	27082	15.6	38
15	27256	15.7	38
15	27430	15.8	38
15	27604	15.9	38
15	27778	16	38
15	27952	16.1	38
15	28126	16.2	38
15	28300	16.3	38
15	28474	16.4	38
15	28648	16.5	38
15	28822	16.6	38
15	28996	16.7	38
15	29170	16.8	38
15	29344	16.9	38
15	29518	17	38
15	29692	17.1	38
15	29866	17.2	38
15	30040	17.3	38
15	30214	17.4	38
15	30388	17.5	38
15	30562	17.6	38
15	30736	17.7	38
15	30910	17.8	38
15	31084	17.9	38
15	31258	18	38
15	31432	18.1	38
15	31606	18.2	38
15	31780	18.3	38
15	31954	18.4	38
15	32128	18.5	38
15	32302	18.6	38
15	32476	18.7	38
15	32650	18.8	38
15	32824	18.9	38
15	32998	19	38
15	33172	19.1	38
15	33346	19.2	38
15	33520	19.3	38
15	33694	19.4	38
15	33868	19.5	38
15	34042	19.6	38
15	34216	19.7	38
15	34390	19.8	38
15	34564	19.9	38
15	34738	20	38
15	34912	20.1	38
15	35086	20.2	38
15	35260	20.3	38
15	35434	20.4	38
15	35608	20.5	38
15	35782	20.6	38
15	35956	20.7	38
15	36130	20.8	38
15	36304	20.9	38
16	23	0.1	46
16	87	0.100125	56
16	287	0.2	56
16	461	0.3	56
16	635	0.4	56
16	809	0.5	56
16	983	0.6	56
16	1157	0.7	56
16	1331	0.8	56
16	1505	0.9	56
16	1679	1	56
16	1853	1.1	56
16	2027	1.2	56
16	2201	1.3	56
16	2375	1.4	56
16	2549	1.5	56
16	2723	1.6	56
16	2897	1.7	56
16	3071	1.8	56
16	3245	1.9	56
16	3419	2	56
16	3593	2.1	56
16	3767	2.2	56
16	3941	2.3	56
16	4115	2.4	56
16	4289	2.5	56
16	4463	2.6	56
16	4637	2.7	56
16	4811	2.8	56
16	4985	2.9	56
16	5159	3	56
16	5333	3.1	56
16	5507	3.2	56
16	5681	3.3	56
16	5855	3.4	56
16	6029	3.5	56
16	6203	3.6	56
16	6377	3.7	56
16	6551	3.8	56
16	6725	3.9	56
16	6899	4	56
16	7073	4.1	56
16	7247	4.2	56
16	7421	4.3	56
16	7595	4.4	56
16	7769	4.5	56
16	7943	4.6	56
16	8117	4.7	56
16	8291	4.8	56
16	8465	4.9	56
16	8639	5	56
16	8813	5.1	56
16	8987	5.2	56
16	9161	5.3	56
16	9335	5.4	56
16	9509	5.5	56
16	9683	5.6	56
16	9857	5.7	56
16	10031	5.8	56
16	10205	5.9	56
16	10379	6	56
16	10553	6.1	56
16	10727	6.2	56
16	10901	6.3	56
16	11075	6.4	56
16	11249	6.5	56
16	11423	6.6	56
16	11597	6.7	56
16	11771	6.8	56
16	11945	6.9	56
16	12119	7	56
16	12293	7.1	56
16	12467	7.2	56
16	12641	7.3	56
16	12815	7.4	56
16	12989	7.5	56
16	13163	7.6	56
16	13337	7.7	56
16	13511	7.8	56
16	13685	7.9	56
16	13859	8	56
16	14033	8.1	56
16	14207	8.2	56
16	14381	8.3	56
16	14555	8.4	56
16	14729	8.5	56
16	14903	8.6	56
16	15077	8.7	56
16	15251	8.8	56
16	15425	8.9	56
16	15599	9	56
16	15773	9.1	56
16	15947	9.2	56
16	16121	9.3	56
16	16295	9.4	56
16	16469	9.5	56
16	16643	9.6	56
16	16817	9.7	56
16	16991	9.8	56
16	17165	9.9	56
16	17339	10	56
16	17513	10.1	56
16	17687	10.2	56
16	17861	10.3	56
16	18035	10.4	56
16	18209	10.5	56
16	18383	10.6	56
16	18557	10.7	56
16	18731	10.8	56
16	18905	10.9	56
16	19079	11	56
16	19253	11.1	56
16	19427	11.2	56
16	19601	11.3	56
16	19775	11.4	56
16	19949	11.5	56
16	20123	11.6	56
16	20297	11.7	56
16	20471	11.8	56
16	20645	11.9	56
16	20819	12	56
16	20993	12.1	56
16	21167	12.2	56
16	21341	12.3	56
16	21515	12.4	56
16	21689	12.5	56
16	21863	12.6	56
16	22037	12.7	56
16	22211	12.8	56
16	22385	12.9	56
16	22559	13	56
16	22733	13.1	56
16	22907	13.2	56
16	23081	13.3	56
16	23255	13.4	56
16	23429	13.5	56
16	23603	13.6	56
16	23777	13.7	56
16	23951	13.8	56
16	24125	13.9	56
16	24299	14	56
16	24473	14.1	56
16	24647	14.2	56
16	24821	14.3	56
16	24995	14.4	56
16	25169	14.5	56
16	25343	14.6	56
16	25517	14.7	56
16	25691	14.8	56
16	25865	14.9	56
16	26039	15	56
16	26213	15.1	56
16	26387	15.2	56
16	26561	15.3	56
16	26735	15.4	56
16	26909	15.5	56
16	27083	15.6	56
16	27257	15.7	56
16	27431	15.8	56
16	27605	15.9	56
16	27779	16	56
16	27953	16.1	56
16	28127	16.2	56
16	28301	16.3	56
16	28475	16.4	56
16	28649	16.5	56
16	28823	16.6	56
16	28997	16.7	56
16	29171	16.8	56
16	29345	16.9	56
16	29519	17	56
16	29693	17.1	56
16	29867	17.2	56
16	30041	17.3	56
16	30215	17.4	56
16	30389	17.5	56
16	30563	17.6	56
16	30737	17.7	56
16	30911	17.8	56
16	31085	17.9	56
16	31259	18	56
16	31433	18.1	56
16	31607	18.2	56
16	31781	18.3	56
16	31955	18.4	56
16	32129	18.5	56
16	32303	18.6	56
16	32477	18.7	56
16	32651	18.8	56
16	32825	18.9	56
16	32999	19	56
16	33173	19.1	56
16	33347	19.2	56
16	33521	19.3	56
16	33695	19.4	56
16	33869	19.5	56
16	34043	19.6	56
16	34217	19.7	56
16	34391	19.8	56
16	34565	19.9	56
16	34739	20	56
16	34913	20.1	56
16	35087	20.2	56
16	35261	20.3	56
16	35435	20.4	56
16	35609	20.5	56
16	35783	20.6	56
16	35957	20.7	56
16	36131	20.8	56
16	36305	20.9	56
17	23	0.1	64
17	87	0.100125	64
17	287	0.2	64
17	461	0.3	64
17	635	0.4	64
17	809	0.5	64
17	983	0.6	64
17	1157	0.7	64
17	1331	0.8	64
17	1505	0.9	64
17	1679	1	64
17	1853	1.1	64
17	2027	1.2	64
17	2201	1.3	64
17	2375	1.4	64
17	2549	1.5	64
17	2723	1.6	64
17	2897	1.7	64
17	3071	1.8	64
17	3245	1.9	64
17	3419	2	64
17	3593	2.1	64
17	3767	2.2	64
17	3941	2.3	64
17	4115	2.4	64
17	4289	2.5	64
17	4463	2.6	64
17	4637	2.7	64
17	4811	2.8	64
17	4985	2.9	64
17	5159	3	64
17	5333	3.1	64
17	5507	3.2	64
17	5681	3.3	64
17	5855	3.4	64
17	6029	3.5	64
17	6203	3.6	64
17	6377	3.7	64
17	6551	3.8	64
17	6725	3.9	64
17	6899	4	64
17	7073	4.1	64
17	7247	4.2	64
17	7421	4.3	64
17	7595	4.4	64
17	7769	4.5	64
17	7943	4.6	64
17	8117	4.7	64
17	8291	4.8	64
17	8465	4.9	64
17	8639	5	64
17	8813	5.1	64
17	8987	5.2	64
17	9161	5.3	64
17	9335	5.4	64
17	9509	5.5	64
17	9683	5.6	64
17	9857	5.7	64
17	10031	5.8	64
17	10205	5.9	64
17	10379	6	64
17	10553	6.1	64
17	10727	6.2	64
17	10901	6.3	64
17	11075	6.4	64
17	11249	6.5	64
17	11423	6.6	64
17	11597	6.7	64
17	11771	6.8	64
17	11945	6.9	64
17	12119	7	64
17	12293	7.1	64
17	12467	7.2	64
17	12641	7.3	64
17	12815	7.4	64
17	12989	7.5	64
17	13163	7.6	64
17	13337	7.7	64
17	13511	7.8	64
17	13685	7.9	64
17	13859	8	64
17	14033	8.1	64
17	14207	8.2	64
17	14381	8.3	64
17	14555	8.4	64
17	14729	8.5	64
17	14903	8.6	64
17	15077	8.7	64
17	15251	8.8	64
17	15425	8.9	64
17	15599	9	64
17	15773	9.1	64
17	15947	9.2	64
17	16121	9.3	64
17	16295	9.4	64
17	16469	9.5	64
17	16643	9.6	64
17	16817	9.7	64
17	16991	9.8	64
17	17165	9.9	64
17	17339	10	64
17	17513	10.1	64
17	17687	10.2	64
17	17861	10.3	64
17	18035	10.4	64
17	18209	10.5	64
17	18383	10.6	64
17	18557	10.7	64
17	18731	10.8	64
17	18905	10.9	64
17	19079	11	64
17	19253	11.1	64
17	19427	11.2	64
17	19601	11.3	64
17	19775	11.4	64
17	19949	11.5	64
17	20123	11.6	64
17	20297	11.7	64
17	20471	11.8	64
17	20645	11.9	64
17	20819	12	64
17	20993	12.1	64
17	21167	12.2	64
17	21341	12.3	64
17	21515	12.4	64
17	21689	12.5	64
17	21863	12.6	64
17	22037	12.7	64
17	22211	12.8	64
17	22385	12.9	64
17	22559	13	64
17	22733	13.1	64
17	22907	13.2	64
17	23081	13.3	64
17	23255	13.4	64
17	23429	13.5	64
17	23603	13.6	64
17	23777	13.7	64
17	23951	13.8	64
17	24125	13.9	64
17	24299	14	64
17	24473	14.1	64
17	24647	14.2	64
17	24821	14.3	64
17	24995	14.4	64
17	25169	14.5	64
17	25343	14.6	64
17	25517	14.7	64
17	25691	14.8	64
17	25865	14.9	64
17	26039	15	64
17	26213	15.1	64
17	26387	15.2	64
17	26561	15.3	64
17	26735	15.4	64
17	26909	15.5	64
17	27083	15.6	64
17	27257	15.7	64
17	27431	15.8	64
17	27605	15.9	64
17	27779	16	64
17	27953	16.1	64
17	28127	16.2	64
17	28301	16.3	64
17	28475	16.4	64
17	28649	16.5	64
17	28823	16.6	64
17	28997	16.7	64
17	29171	16.8	64
17	29345	16.9	64
17	29519	17	64
17	29693	17.1	64
17	29867	17.2	64
17	30041	17.3	64
17	30215	17.4	64
17	30389	17.5	64
17	30563	17.6	64
17	30737	17.7	64
17	30911	17.8	64
17	31085	17.9	64
17	31259	18	64
17	31433	18.1	64
17	31607	18.2	64
17	31781	18.3	64
17	31955	18.4	64
17	32129	18.5	64
17	32303	18.6	64
17	32477	18.7	64
17	32651	18.8	64
17	32825	18.9	64
17	32999	19	64
17	33173	19.1	64
17	33347	19.2	64
17	33521	19.3	64
17	33695	19.4	64
17	33869	19.5	64
17	34043	19.6	64
17	34217	19.7	64
17	34391	19.8	64
17	34565	19.9	64
17	34739	20	64
17	34913	20.1	64
17	35087	20.2	64
17	35261	20.3	64
17	35435	20.4	64
17	35609	20.5	64
17	35783	20.6	64
17	35957	20.7	64
17	36131	20.8	64
17	36305	20.9	64
18	23	0.1	1
18	23	0.1	0
18	87	0.100125	1
18	87	0.100125	0
18	287	0.2	1
18	287	0.2	0
18	461	0.3	1
18	461	0.3	0
18	635	0.4	1
18	635	0.4	0
18	809	0.5	1
18	809	0.5	0
18	983	0.6	1
18	983	0.6	0
18	1157	0.7	1
18	1157	0.7	0
18	1331	0.8	1
18	1331	0.8	0
18	1505	0.9	1
18	1505	0.9	0
18	1679	1	1
18	1679	1	0
18	1853	1.1	1
18	1853	1.1	0
18	2027	1.2	1
18	2027	1.2	0
18	2201	1.3	1
18	2201	1.3	0
18	2375	1.4	1
18	2375	1.4	0
18	2549	1.5	1
18	2549	1.5	0
18	2723	1.6	1
18	2723	1.6	0
18	2897	1.7	1
18	2897	1.7	0
18	3071	1.8	1
18	3071	1.8	0
18	3245	1.9	1
18	3245	1.9	0
18	3419	2	1
18	3419	2	0
18	3593	2.1	1
18	3593	2.1	0
18	3767	2.2	1
18	3767	2.2	0
18	3941	2.3	1
18	3941	2.3	0
18	4115	2.4	1
18	4115	2.4	0
18	4289	2.5	1
18	4289	2.5	0
18	4463	2.6	1
18	4463	2.6	0
18	4637	2.7	1
18	4637	2.7	0
18	4811	2.8	1
18	4811	2.8	0
18	4985	2.9	1
18	4985	2.9	0
18	5159	3	1
18	5159	3	0
18	5333	3.1	1
18	5333	3.1	0
18	5507	3.2	1
18	5507	3.2	0
18	5681	3.3	1
18	5681	3.3	0
18	5855	3.4	1
18	5855	3.4	0
18	6029	3.5	1
18	6029	3.5	0
18	6203	3.6	1
18	6203	3.6	0
18	6377	3.7	1
18	6377	3.7	0
18	6551	3.8	1
18	6551	3.8	0
18	6725	3.9	1
18	6725	3.9	0
18	6899	4	1
18	6899	4	0
18	7073	4.1	1
18	7073	4.1	0
18	7247	4.2	1
18	7247	4.2	0
18	7421	4.3	1
18	7421	4.3	0
18	7595	4.4	1
18	7595	4.4	0
18	7769	4.5	1
18	7769	4.5	0
18	7943	4.6	1
18	7943	4.6	0
18	8117	4.7	1
18	8117	4.7	0
18	8291	4.8	1
18	8291	4.8	0
18	8465	4.9	1
18	8465	4.9	0
18	8639	5	1
18	8639	5	0
18	8813	5.1	1
18	8813	5.1	0
18	8987	5.2	1
18	8987	5.2	0
18	9161	5.3	1
18	9161	5.3	0
18	9335	5.4	1
18	9335	5.4	0
18	9509	5.5	1
18	9509	5.5	0
18	9683	5.6	1
18	9683	5.6	0
18	9857	5.7	1
18	9857	5.7	0
18	10031	5.8	1
18	10031	5.8	0
18	10205	5.9	1
18	10205	5.9	0
18	10379	6	1
18	10379	6	0
18	10553	6.1	1
18	10553	6.1	0
18	10727	6.2	1
18	10727	6.2	0
18	10901	6.3	1
18	10901	6.3	0
18	11075	6.4	1
18	11075	6.4	0
18	11249	6.5	1
18	11249	6.5	0
18	11423	6.6	1
18	11423	6.6	0
18	11597	6.7	1
18	11597	6.7	0
18	11771	6.8	1
18	11771	6.8	0
18	11945	6.9	1
18	11945	6.9	0
18	12119	7	1
18	12119	7	0
18	12293	7.1	1
18	12293	7.1	0
18	12467	7.2	1
18	12467	7.2	0
18	12641	7.3	1
18	12641	7.3	0
18	12815	7.4	1
18	12815	7.4	0
18	12989	7.5	1
18	12989	7.5	0
18	13163	7.6	1
18	13163	7.6	0
18	13337	7.7	1
18	13337	7.7	0
18	13511	7.8	1
18	13511	7.8	0
18	13685	7.9	1
18	13685	7.9	0
18	13859	8	1
18	13859	8	0
18	14033	8.1	1
18	14033	8.1	0
18	14207	8.2	1
18	14207	8.2	0
18	14381	8.3	1
18	14381	8.3	0
18	14555	8.4	1
18	14555	8.4	0
18	14729	8.5	1
18	14729	8.5	0
18	14903	8.6	1
18	14903	8.6	0
18	15077	8.7	1
18	15077	8.7	0
18	15251	8.8	1
18	15251	8.8	0
18	15425	8.9	1
18	15425	8.9	0
18	15599	9	1
18	15599	9	0
18	15773	9.1	1
18	15773	9.1	0
18	15947	9.2	1
18	15947	9.2	0
18	16121	9.3	1
18	16121	9.3	0
18	16295	9.4	1
18	16295	9.4	0
18	16469	9.5	1
18	16469	9.5	0
18	16643	9.6	1
18	16643	9.6	0
18	16817	9.7	1
18	16817	9.7	0
18	16991	9.8	1
18	16991	9.8	0
18	17165	9.9	1
18	17165	9.9	0
18	17339	10	1
18	17339	10	0
18	17513	10.1	1
18	17513	10.1	0
18	17687	10.2	1
18	17687	10.2	0
18	17861	10.3	1
18	17861	10.3	0
18	18035	10.4	1
18	18035	10.4	0
18	18209	10.5	1
18	18209	10.5	0
18	18383	10.6	1
18	18383	10.6	0
18	18557	10.7	1
18	18557	10.7	0
18	18731	10.8	1
18	18731	10.8	0
18	18905	10.9	1
18	18905	10.9	0
18	19079	11	1
18	19079	11	0
18	19253	11.1	1
18	19253	11.1	0
18	19427	11.2	1
18	19427	11.2	0
18	19601	11.3	1
18	19601	11.3	0
18	19775	11.4	1
18	19775	11.4	0
18	19949	11.5	1
18	19949	11.5	0
18	20123	11.6	1
18	20123	11.6	0
18	20297	11.7	1
18	20297	11.7	0
18	20471	11.8	1
18	20471	11.8	0
18	20645	11.9	1
18	20645	11.9	0
18	20819	12	1
18	20819	12	0
18	20993	12.1	1
18	20993	12.1	0
18	21167	12.2	1
18	21167	12.2	0
18	21341	12.3	1
18	21341	12.3	0
18	21515	12.4	1
18	21515	12.4	0
18	21689	12.5	1
18	21689	12.5	0
18	21863	12.6	1
18	21863	12.6	0
18	22037	12.7	1
18	22037	12.7	0
18	22211	12.8	1
18	22211	12.8	0
18	22385	12.9	1
18	22385	12.9	0
18	22559	13	1
18	22559	13	0
18	22733	13.1	1
18	22733	13.1	0
18	22907	13.2	1
18	22907	13.2	0
18	23081	13.3	1
18	23081	13.3	0
18	23255	13.4	1
18	23255	13.4	0
18	23429	13.5	1
18	23429	13.5	0
18	23603	13.6	1
18	23603	13.6	0
18	23777	13.7	1
18	23777	13.7	0
18	23951	13.8	1
18	23951	13.8	0
18	24125	13.9	1
18	24125	13.9	0
18	24299	14	1
18	24299	14	0
18	24473	14.1	1
18	24473	14.1	0
18	24647	14.2	1
18	24647	14.2	0
18	24821	14.3	1
18	24821	14.3	0
18	24995	14.4	1
18	24995	14.4	0
18	25169	14.5	1
18	25169	14.5	0
18	25343	14.6	1
18	25343	14.6	0
18	25517	14.7	1
18	25517	14.7	0
18	25691	14.8	1
18	25691	14.8	0
18	25865	14.9	1
18	25865	14.9	0
18	26039	15	1
18	26039	15	0
18	26213	15.1	1
18	26213	15.1	0
18	26387	15.2	1
18	26387	15.2	0
18	26561	15.3	1
18	26561	15.3	0
18	26735	15.4	1
18	26735	15.4	0
18	26909	15.5	1
18	26909	15.5	0
18	27083	15.6	1
18	27083	15.6	0
18	27257	15.7	1
18	27257	15.7	0
18	27431	15.8	1
18	27431	15.8	0
18	27605	15.9	1
18	27605	15.9	0
18	27779	16	1
18	27779	16	0
18	27953	16.1	1
18	27953	16.1	0
18	28127	16.2	1
18	28127	16.2	0
18	28301	16.3	1
18	28301	16.3	0
18	28475	16.4	1
18	28475	16.4	0
18	28649	16.5	1
18	28649	16.5	0
18	28823	16.6	1
18	28823	16.6	0
18	28997	16.7	1
18	28997	16.7	0
18	29171	16.8	1
18	29171	16.8	0
18	29345	16.9	1
18	29345	16.9	0
18	29519	17	1
18	29519	17	0
18	29693	17.1	1
18	29693	17.1	0
18	29867	17.2	1
18	29867	17.2	0
18	30041	17.3	1
18	30041	17.3	0
18	30215	17.4	1
18	30215	17.4	0
18	30389	17.5	1
18	30389	17.5	0
18	30563	17.6	1
18	30563	17.6	0
18	30737	17.7	1
18	30737	17.7	0
18	30911	17.8	1
18	30911	17.8	0
18	31085	17.9	1
18	31085	17.9	0
18	31259	18	1
18	31259	18	0
18	31433	18.1	1
18	31433	18.1	0
18	31607	18.2	1
18	31607	18.2	0
18	31781	18.3	1
18	31781	18.3	0
18	31955	18.4	1
18	31955	18.4	0
18	32129	18.5	1
18	32129	18.5	0
18	32303	18.6	1
18	32303	18.6	0
18	32477	18.7	1
18	32477	18.7	0
18	32651	18.8	1
18	32651	18.8	0
18	32825	18.9	1
18	32825	18.9	0
18	32999	19	1
18	32999	19	0
18	33173	19.1	1
18	33173	19.1	0
18	33347	19.2	1
18	33347	19.2	0
18	33521	19.3	1
18	33521	19.3	0
18	33695	19.4	1
18	33695	19.4	0
18	33869	19.5	1
18	33869	19.5	0
18	34043	19.6	1
18	34043	19.6	0
18	34217	19.7	1
18	34217	19.7	0
18	34391	19.8	1
18	34391	19.8	0
18	34565	19.9	1
18	34565	19.9	0
18	34739	20	1
18	34739	20	0
18	34913	20.1	1
18	34913	20.1	0
18	35087	20.2	1
18	35087	20.2	0
18	35261	20.3	1
18	35261	20.3	0
18	35435	20.4	1
18	35435	20.4	0
18	35609	20.5	1
18	35609	20.5	0
18	35783	20.6	1
18	35783	20.6	0
18	35957	20.7	1
18	35957	20.7	0
18	36131	20.8	1
18	36131	20.8	0
18	36305	20.9	1
18	36305	20.9	0
19	23	0.1	64
19	87	0.100125	64
19	287	0.2	64
19	461	0.3	64
19	635	0.4	64
19	809	0.5	64
19	983	0.6	64
19	1157	0.7	64
19	1331	0.8	64
19	1505	0.9	64
19	1679	1	64
19	1853	1.1	64
19	2027	1.2	64
19	2201	1.3	64
19	2375	1.4	64
19	2549	1.5	64
19	2723	1.6	64
19	2897	1.7	64
19	3071	1.8	64
19	3245	1.9	64
19	3419	2	64
19	3593	2.1	64
19	3767	2.2	64
19	3941	2.3	64
19	4115	2.4	64
19	4289	2.5	64
19	4463	2.6	64
19	4637	2.7	64
19	4811	2.8	64
19	4985	2.9	64
19	5159	3	64
19	5333	3.1	64
19	5507	3.2	64
19	5681	3.3	64
19	5855	3.4	64
19	6029	3.5	64
19	6203	3.6	64
19	6377	3.7	64
19	6551	3.8	64
19	6725	3.9	64
19	6899	4	64
19	7073	4.1	64
19	7247	4.2	64
19	7421	4.3	64
19	7595	4.4	64
19	7769	4.5	64
19	7943	4.6	64
19	8117	4.7	64
19	8291	4.8	64
19	8465	4.9	64
19	8639	5	64
19	8813	5.1	64
19	8987	5.2	64
19	9161	5.3	64
19	9335	5.4	64
19	9509	5.5	64
19	9683	5.6	64
19	9857	5.7	64
19	10031	5.8	64
19	10205	5.9	64
19	10379	6	64
19	10553	6.1	64
19	10727	6.2	64
19	10901	6.3	64
19	11075	6.4	64
19	11249	6.5	64
19	11423	6.6	64
19	11597	6.7	64
19	11771	6.8	64
19	11945	6.9	64
19	12119	7	64
19	12293	7.1	64
19	12467	7.2	64
19	12641	7.3	64
19	12815	7.4	64
19	12989	7.5	64
19	13163	7.6	64
19	13337	7.7	64
19	13511	7.8	64
19	13685	7.9	64
19	13859	8	64
19	14033	8.1	64
19	14207	8.2	64
19	14381	8.3	64
19	14555	8.4	64
19	14729	8.5	64
19	14903	8.6	64
19	15077	8.7	64
19	15251	8.8	64
19	15425	8.9	64
19	15599	9	64
19	15773	9.1	64
19	15947	9.2	64
19	16121	9.3	64
[...]
138	30369	17.400442	174
138	30543	17.500442	175
138	30717	17.600442	176
138	30891	17.700442	177
138	31065	17.800442	178
138	31239	17.900442	179
138	31413	18.000442	180
138	31587	18.100442	181
138	31761	18.200442	182
138	31935	18.300442	183
138	32109	18.400442	184
138	32283	18.500442	185
138	32457	18.600442	186
138	32631	18.700442	187
138	32805	18.800442	188
138	32979	18.900442	189
138	33153	19.000442	190
138	33327	19.100442	191
138	33501	19.200442	192
138	33675	19.300442	193
138	33849	19.400442	194
138	34023	19.500442	195
138	34197	19.600442	196
138	34371	19.700442	197
138	34545	19.800442	198
138	34719	19.900442	199
138	34893	20.000442	200
138	35067	20.100442	201
138	35241	20.200442	202
138	35415	20.300442	203
138	35589	20.400442	204
138	35763	20.500442	205
138	35937	20.600442	206
138	36111	20.700442	207
138	36285	20.800442	208
139	268	0.1007112	10
139	442	0.200442	10
139	616	0.300442	10
139	790	0.400442	10
139	964	0.500442	10
139	1138	0.600442	10
139	1312	0.700442	10
139	1486	0.800442	10
139	1660	0.900442	10
139	1834	1.000442	10
139	2008	1.100442	10
139	2182	1.200442	10
139	2356	1.300442	10
139	2530	1.400442	10
139	2704	1.500442	10
139	2878	1.600442	10
139	3052	1.700442	10
139	3226	1.800442	10
139	3400	1.900442	10
139	3574	2.000442	10
139	3748	2.100442	10
139	3922	2.200442	10
139	4096	2.300442	10
139	4270	2.400442	10
139	4444	2.500442	10
139	4618	2.600442	10
139	4792	2.700442	10
139	4966	2.800442	10
139	5140	2.900442	10
139	5314	3.000442	10
139	5488	3.100442	10
139	5662	3.200442	10
139	5836	3.300442	10
139	6010	3.400442	10
139	6184	3.500442	10
139	6358	3.600442	10
139	6532	3.700442	10
139	6706	3.800442	10
139	6880	3.900442	10
139	7054	4.000442	10
139	7228	4.100442	10
139	7402	4.200442	10
139	7576	4.300442	10
139	7750	4.400442	10
139	7924	4.500442	10
139	8098	4.600442	10
139	8272	4.700442	10
139	8446	4.800442	10
139	8620	4.900442	10
139	8794	5.000442	10
139	8968	5.100442	10
139	9142	5.200442	10
139	9316	5.300442	10
139	9490	5.400442	10
139	9664	5.500442	10
139	9838	5.600442	10
139	10012	5.700442	10
139	10186	5.800442	10
139	10360	5.900442	10
139	10534	6.000442	10
139	10708	6.100442	10
139	10882	6.200442	10
139	11056	6.300442	10
139	11230	6.400442	10
139	11404	6.500442	10
139	11578	6.600442	10
139	11752	6.700442	10
139	11926	6.800442	10
139	12100	6.900442	10
139	12274	7.000442	10
139	12448	7.100442	10
139	12622	7.200442	10
139	12796	7.300442	10
139	12970	7.400442	10
139	13144	7.500442	10
139	13318	7.600442	10
139	13492	7.700442	10
139	13666	7.800442	10
139	13840	7.900442	10
139	14014	8.000442	10
139	14188	8.100442	10
139	14362	8.200442	10
139	14536	8.300442	10
139	14710	8.400442	10
139	14884	8.500442	10
139	15058	8.600442	10
139	15232	8.700442	10
139	15406	8.800442	10
139	15580	8.900442	10
139	15754	9.000442	10
139	15928	9.100442	10
139	16102	9.200442	10
139	16276	9.300442	10
139	16450	9.400442	10
139	16624	9.500442	10
139	16798	9.600442	10
139	16972	9.700442	10
139	17146	9.800442	10
139	17320	9.900442	10
139	17494	10.000442	10
139	17668	10.100442	10
139	17842	10.200442	10
139	18016	10.300442	10
139	18190	10.400442	10
139	18364	10.500442	10
139	18538	10.600442	10
139	18712	10.700442	10
139	18886	10.800442	10
139	19060	10.900442	10
139	19234	11.000442	10
139	19408	11.100442	10
139	19582	11.200442	10
139	19756	11.300442	10
139	19930	11.400442	10
139	20104	11.500442	10
139	20278	11.600442	10
139	20452	11.700442	10
139	20626	11.800442	10
139	20800	11.900442	10
139	20974	12.000442	10
139	21148	12.100442	10
139	21322	12.200442	10
139	21496	12.300442	10
139	21670	12.400442	10
139	21844	12.500442	10
139	22018	12.600442	10
139	22192	12.700442	10
139	22366	12.800442	10
139	22540	12.900442	10
139	22714	13.000442	10
139	22888	13.100442	10
139	23062	13.200442	10
139	23236	13.300442	10
139	23410	13.400442	10
139	23584	13.500442	10
139	23758	13.600442	10
139	23932	13.700442	10
139	24106	13.800442	10
139	24280	13.900442	10
139	24454	14.000442	10
139	24628	14.100442	10
139	24802	14.200442	10
139	24976	14.300442	10
139	25150	14.400442	10
139	25324	14.500442	10
139	25498	14.600442	10
139	25672	14.700442	10
139	25846	14.800442	10
139	26020	14.900442	10
139	26194	15.000442	10
139	26368	15.100442	10
139	26542	15.200442	10
139	26716	15.300442	10
139	26890	15.400442	10
139	27064	15.500442	10
139	27238	15.600442	10
139	27412	15.700442	10
139	27586	15.800442	10
139	27760	15.900442	10
139	27934	16.000442	10
139	28108	16.100442	10
139	28282	16.200442	10
139	28456	16.300442	10
139	28630	16.400442	10
139	28804	16.500442	10
139	28978	16.600442	10
139	29152	16.700442	10
139	29326	16.800442	10
139	29500	16.900442	10
139	29674	17.000442	10
139	29848	17.100442	10
139	30022	17.200442	10
139	30196	17.300442	10
139	30370	17.400442	10
139	30544	17.500442	10
139	30718	17.600442	10
139	30892	17.700442	10
139	31066	17.800442	10
139	31240	17.900442	10
139	31414	18.000442	10
139	31588	18.100442	10
139	31762	18.200442	10
139	31936	18.300442	10
139	32110	18.400442	10
139	32284	18.500442	10
139	32458	18.600442	10
139	32632	18.700442	10
139	32806	18.800442	10
139	32980	18.900442	10
139	33154	19.000442	10
139	33328	19.100442	10
139	33502	19.200442	10
139	33676	19.300442	10
139	33850	19.400442	10
139	34024	19.500442	10
139	34198	19.600442	10
139	34372	19.700442	10
139	34546	19.800442	10
139	34720	19.900442	10
139	34894	20.000442	10
139	35068	20.100442	10
139	35242	20.200442	10
139	35416	20.300442	10
139	35590	20.400442	10
139	35764	20.500442	10
139	35938	20.600442	10
139	36112	20.700442	10
139	36286	20.800442	10
140	268	0.1	0
140	442	0.2	800
140	616	0.3	800
140	790	0.4	800
140	964	0.5	800
140	1138	0.6	800
140	1312	0.7	800
140	1486	0.8	800
140	1660	0.9	800
140	1834	1	800
140	2008	1.1	800
140	2182	1.2	800
140	2356	1.3	800
140	2530	1.4	800
140	2704	1.5	800
140	2878	1.6	800
140	3052	1.7	800
140	3226	1.8	800
140	3400	1.9	800
140	3574	2	800
140	3748	2.1	800
140	3922	2.2	800
140	4096	2.3	800
140	4270	2.4	800
140	4444	2.5	800
140	4618	2.6	800
140	4792	2.7	800
140	4966	2.8	800
140	5140	2.9	800
140	5314	3	800
140	5488	3.1	800
140	5662	3.2	800
140	5836	3.3	800
140	6010	3.4	800
140	6184	3.5	800
140	6358	3.6	800
140	6532	3.7	800
140	6706	3.8	800
140	6880	3.9	800
140	7054	4	800
140	7228	4.1	800
140	7402	4.2	800
140	7576	4.3	800
140	7750	4.4	800
140	7924	4.5	800
140	8098	4.6	800
140	8272	4.7	800
140	8446	4.8	800
140	8620	4.9	800
140	8794	5	800
140	8968	5.1	800
140	9142	5.2	800
140	9316	5.3	800
140	9490	5.4	800
140	9664	5.5	800
140	9838	5.6	800
140	10012	5.7	800
140	10186	5.8	800
140	10360	5.9	800
140	10534	6	800
140	10708	6.1	800
140	10882	6.2	800
140	11056	6.3	800
140	11230	6.4	800
140	11404	6.5	800
140	11578	6.6	800
140	11752	6.7	800
140	11926	6.8	800
140	12100	6.9	800
140	12274	7	800
140	12448	7.1	800
140	12622	7.2	800
140	12796	7.3	800
140	12970	7.4	800
140	13144	7.5	800
140	13318	7.6	800
140	13492	7.7	800
140	13666	7.8	800
140	13840	7.9	800
140	14014	8	800
140	14188	8.1	800
140	14362	8.2	800
140	14536	8.3	800
140	14710	8.4	800
140	14884	8.5	800
140	15058	8.6	800
140	15232	8.7	800
140	15406	8.8	800
140	15580	8.9	800
140	15754	9	800
140	15928	9.1	800
140	16102	9.2	800
140	16276	9.3	800
140	16450	9.4	800
140	16624	9.5	800
140	16798	9.6	800
140	16972	9.7	800
140	17146	9.8	800
140	17320	9.9	800
140	17494	10	800
140	17668	10.1	800
140	17842	10.2	800
140	18016	10.3	800
140	18190	10.4	800
140	18364	10.5	800
140	18538	10.6	800
140	18712	10.7	800
140	18886	10.8	800
140	19060	10.9	800
140	19234	11	800
140	19408	11.1	800
140	19582	11.2	800
140	19756	11.3	800
140	19930	11.4	800
140	20104	11.5	800
140	20278	11.6	800
140	20452	11.7	800
140	20626	11.8	800
140	20800	11.9	800
140	20974	12	800
140	21148	12.1	800
140	21322	12.2	800
140	21496	12.3	800
140	21670	12.4	800
140	21844	12.5	800
140	22018	12.6	800
140	22192	12.7	800
140	22366	12.8	800
140	22540	12.9	800
140	22714	13	800
140	22888	13.1	800
140	23062	13.2	800
140	23236	13.3	800
140	23410	13.4	800
140	23584	13.5	800
140	23758	13.6	800
140	23932	13.7	800
140	24106	13.8	800
140	24280	13.9	800
140	24454	14	800
140	24628	14.1	800
140	24802	14.2	800
140	24976	14.3	800
140	25150	14.4	800
140	25324	14.5	800
140	25498	14.6	800
140	25672	14.7	800
140	25846	14.8	800
140	26020	14.9	800
140	26194	15	800
140	26368	15.1	800
140	26542	15.2	800
140	26716	15.3	800
140	26890	15.4	800
140	27064	15.5	800
140	27238	15.6	800
140	27412	15.7	800
140	27586	15.8	800
140	27760	15.9	800
140	27934	16	800
140	28108	16.1	800
140	28282	16.2	800
140	28456	16.3	800
140	28630	16.4	800
140	28804	16.5	800
140	28978	16.6	800
140	29152	16.7	800
140	29326	16.8	800
140	29500	16.9	800
140	29674	17	800
140	29848	17.1	800
140	30022	17.2	800
140	30196	17.3	800
140	30370	17.4	800
140	30544	17.5	800
140	30718	17.6	800
140	30892	17.7	800
140	31066	17.8	800
140	31240	17.9	800
140	31414	18	800
140	31588	18.1	800
140	31762	18.2	800
140	31936	18.3	800
140	32110	18.4	800
140	32284	18.5	800
140	32458	18.6	800
140	32632	18.7	800
140	32806	18.8	800
140	32980	18.9	800
140	33154	19	800
140	33328	19.1	800
140	33502	19.2	800
140	33676	19.3	800
140	33850	19.4	800
140	34024	19.5	800
140	34198	19.6	800
140	34372	19.7	800
140	34546	19.8	800
140	34720	19.9	800
140	34894	20	800
140	35068	20.1	800
140	35242	20.2	800
140	35416	20.3	800
140	35590	20.4	800
140	35764	20.5	800
140	35938	20.6	800
140	36112	20.7	800
140	36286	20.8	800
141	268	0.1007112	0.0007112
141	442	0.200442	0.000442
141	616	0.300442	0.000442
141	790	0.400442	0.000442
141	964	0.500442	0.000442
141	1138	0.600442	0.000442
141	1312	0.700442	0.000442
141	1486	0.800442	0.000442
141	1660	0.900442	0.000442
141	1834	1.000442	0.000442
141	2008	1.100442	0.000442
141	2182	1.200442	0.000442
141	2356	1.300442	0.000442
141	2530	1.400442	0.000442
141	2704	1.500442	0.000442
141	2878	1.600442	0.000442
141	3052	1.700442	0.000442
141	3226	1.800442	0.000442
141	3400	1.900442	0.000442
141	3574	2.000442	0.000442
141	3748	2.100442	0.000442
141	3922	2.200442	0.000442
141	4096	2.300442	0.000442
141	4270	2.400442	0.000442
141	4444	2.500442	0.000442
141	4618	2.600442	0.000442
141	4792	2.700442	0.000442
141	4966	2.800442	0.000442
141	5140	2.900442	0.000442
141	5314	3.000442	0.000442
141	5488	3.100442	0.000442
141	5662	3.200442	0.000442
141	5836	3.300442	0.000442
141	6010	3.400442	0.000442
141	6184	3.500442	0.000442
141	6358	3.600442	0.000442
141	6532	3.700442	0.000442
141	6706	3.800442	0.000442
141	6880	3.900442	0.000442
141	7054	4.000442	0.000442
141	7228	4.100442	0.000442
141	7402	4.200442	0.000442
141	7576	4.300442	0.000442
141	7750	4.400442	0.000442
141	7924	4.500442	0.000442
141	8098	4.600442	0.000442
141	8272	4.700442	0.000442
141	8446	4.800442	0.000442
141	8620	4.900442	0.000442
141	8794	5.000442	0.000442
141	8968	5.100442	0.000442
141	9142	5.200442	0.000442
141	9316	5.300442	0.000442
141	9490	5.400442	0.000442
141	9664	5.500442	0.000442
141	9838	5.600442	0.000442
141	10012	5.700442	0.000442
141	10186	5.800442	0.000442
141	10360	5.900442	0.000442
141	10534	6.000442	0.000442
141	10708	6.100442	0.000442
141	10882	6.200442	0.000442
141	11056	6.300442	0.000442
141	11230	6.400442	0.000442
141	11404	6.500442	0.000442
141	11578	6.600442	0.000442
141	11752	6.700442	0.000442
141	11926	6.800442	0.000442
141	12100	6.900442	0.000442
141	12274	7.000442	0.000442
141	12448	7.100442	0.000442
141	12622	7.200442	0.000442
141	12796	7.300442	0.000442
141	12970	7.400442	0.000442
141	13144	7.500442	0.000442
141	13318	7.600442	0.000442
141	13492	7.700442	0.000442
141	13666	7.800442	0.000442
141	13840	7.900442	0.000442
141	14014	8.000442	0.000442
141	14188	8.100442	0.000442
141	14362	8.200442	0.000442
141	14536	8.300442	0.000442
141	14710	8.400442	0.000442
141	14884	8.500442	0.000442
141	15058	8.600442	0.000442
141	15232	8.700442	0.000442
141	15406	8.800442	0.000442
141	15580	8.900442	0.000442
141	15754	9.000442	0.000442
141	15928	9.100442	0.000442
141	16102	9.200442	0.000442
141	16276	9.300442	0.000442
141	16450	9.400442	0.000442
141	16624	9.500442	0.000442
141	16798	9.600442	0.000442
141	16972	9.700442	0.000442
141	17146	9.800442	0.000442
141	17320	9.900442	0.000442
141	17494	10.000442	0.000442
141	17668	10.100442	0.000442
141	17842	10.200442	0.000442
141	18016	10.300442	0.000442
141	18190	10.400442	0.000442
141	18364	10.500442	0.000442
141	18538	10.600442	0.000442
141	18712	10.700442	0.000442
141	18886	10.800442	0.000442
141	19060	10.900442	0.000442
141	19234	11.000442	0.000442
141	19408	11.100442	0.000442
141	19582	11.200442	0.000442
141	19756	11.300442	0.000442
141	19930	11.400442	0.000442
141	20104	11.500442	0.000442
141	20278	11.600442	0.000442
141	20452	11.700442	0.000442
141	20626	11.800442	0.000442
141	20800	11.900442	0.000442
141	20974	12.000442	0.000442
141	21148	12.100442	0.000442
141	21322	12.200442	0.000442
141	21496	12.300442	0.000442
141	21670	12.400442	0.000442
141	21844	12.500442	0.000442
141	22018	12.600442	0.000442
141	22192	12.700442	0.000442
141	22366	12.800442	0.000442
141	22540	12.900442	0.000442
141	22714	13.000442	0.000442
141	22888	13.100442	0.000442
141	23062	13.200442	0.000442
141	23236	13.300442	0.000442
141	23410	13.400442	0.000442
141	23584	13.500442	0.000442
141	23758	13.600442	0.000442
141	23932	13.700442	0.000442
141	24106	13.800442	0.000442
141	24280	13.900442	0.000442
141	24454	14.000442	0.000442
141	24628	14.100442	0.000442
141	24802	14.200442	0.000442
141	24976	14.300442	0.000442
141	25150	14.400442	0.000442
141	25324	14.500442	0.000442
141	25498	14.600442	0.000442
141	25672	14.700442	0.000442
141	25846	14.800442	0.000442
141	26020	14.900442	0.000442
141	26194	15.000442	0.000442
141	26368	15.100442	0.000442
141	26542	15.200442	0.000442
141	26716	15.300442	0.000442
141	26890	15.400442	0.000442
141	27064	15.500442	0.000442
141	27238	15.600442	0.000442
141	27412	15.700442	0.000442
141	27586	15.800442	0.000442
141	27760	15.900442	0.000442
141	27934	16.000442	0.000442
141	28108	16.100442	0.000442
141	28282	16.200442	0.000442
141	28456	16.300442	0.000442
141	28630	16.400442	0.000442
141	28804	16.500442	0.000442
141	28978	16.600442	0.000442
141	29152	16.700442	0.000442
141	29326	16.800442	0.000442
141	29500	16.900442	0.000442
141	29674	17.000442	0.000442
141	29848	17.100442	0.000442
141	30022	17.200442	0.000442
141	30196	17.300442	0.000442
141	30370	17.400442	0.000442
141	30544	17.500442	0.000442
141	30718	17.600442	0.000442
141	30892	17.700442	0.000442
141	31066	17.800442	0.000442
141	31240	17.900442	0.000442
141	31414	18.000442	0.000442
141	31588	18.100442	0.000442
141	31762	18.200442	0.000442
141	31936	18.300442	0.000442
141	32110	18.400442	0.000442
141	32284	18.500442	0.000442
141	32458	18.600442	0.000442
141	32632	18.700442	0.000442
141	32806	18.800442	0.000442
141	32980	18.900442	0.000442
141	33154	19.000442	0.000442
141	33328	19.100442	0.000442
141	33502	19.200442	0.000442
141	33676	19.300442	0.000442
141	33850	19.400442	0.000442
141	34024	19.500442	0.000442
141	34198	19.600442	0.000442
141	34372	19.700442	0.000442
141	34546	19.800442	0.000442
141	34720	19.900442	0.000442
141	34894	20.000442	0.000442
141	35068	20.100442	0.000442
141	35242	20.200442	0.000442
141	35416	20.300442	0.000442
141	35590	20.400442	0.000442
141	35764	20.500442	0.000442
141	35938	20.600442	0.000442
141	36112	20.700442	0.000442
141	36286	20.800442	0.000442
142	268	0.1007112	0
142	442	0.200442	1
142	616	0.300442	2
142	790	0.400442	3
142	964	0.500442	4
142	1138	0.600442	5
142	1312	0.700442	6
142	1486	0.800442	7
142	1660	0.900442	8
142	1834	1.000442	9
142	2008	1.100442	10
142	2182	1.200442	11
142	2356	1.300442	12
142	2530	1.400442	13
142	2704	1.500442	14
142	2878	1.600442	15
142	3052	1.700442	16
142	3226	1.800442	17
142	3400	1.900442	18
142	3574	2.000442	19
142	3748	2.100442	20
142	3922	2.200442	21
142	4096	2.300442	22
142	4270	2.400442	23
142	4444	2.500442	24
142	4618	2.600442	25
142	4792	2.700442	26
142	4966	2.800442	27
142	5140	2.900442	28
142	5314	3.000442	29
142	5488	3.100442	30
142	5662	3.200442	31
142	5836	3.300442	32
142	6010	3.400442	33
142	6184	3.500442	34
142	6358	3.600442	35
142	6532	3.700442	36
142	6706	3.800442	37
142	6880	3.900442	38
142	7054	4.000442	39
142	7228	4.100442	40
142	7402	4.200442	41
142	7576	4.300442	42
142	7750	4.400442	43
142	7924	4.500442	44
142	8098	4.600442	45
142	8272	4.700442	46
142	8446	4.800442	47
142	8620	4.900442	48
142	8794	5.000442	49
142	8968	5.100442	50
142	9142	5.200442	51
142	9316	5.300442	52
142	9490	5.400442	53
142	9664	5.500442	54
142	9838	5.600442	55
142	10012	5.700442	56
142	10186	5.800442	57
142	10360	5.900442	58
142	10534	6.000442	59
142	10708	6.100442	60
142	10882	6.200442	61
142	11056	6.300442	62
142	11230	6.400442	63
142	11404	6.500442	64
142	11578	6.600442	65
142	11752	6.700442	66
142	11926	6.800442	67
142	12100	6.900442	68
142	12274	7.000442	69
142	12448	7.100442	70
142	12622	7.200442	71
142	12796	7.300442	72
142	12970	7.400442	73
142	13144	7.500442	74
142	13318	7.600442	75
142	13492	7.700442	76
142	13666	7.800442	77
142	13840	7.900442	78
142	14014	8.000442	79
142	14188	8.100442	80
142	14362	8.200442	81
142	14536	8.300442	82
142	14710	8.400442	83
142	14884	8.500442	84
142	15058	8.600442	85
142	15232	8.700442	86
142	15406	8.800442	87
142	15580	8.900442	88
142	15754	9.000442	89
142	15928	9.100442	90
142	16102	9.200442	91
142	16276	9.300442	92
142	16450	9.400442	93
142	16624	9.500442	94
142	16798	9.600442	95
142	16972	9.700442	96
142	17146	9.800442	97
142	17320	9.900442	98
142	17494	10.000442	99
142	17668	10.100442	100
142	17842	10.200442	101
142	18016	10.300442	102
142	18190	10.400442	103
142	18364	10.500442	104
142	18538	10.600442	105
142	18712	10.700442	106
142	18886	10.800442	107
142	19060	10.900442	108
142	19234	11.000442	109
142	19408	11.100442	110
142	19582	11.200442	111
142	19756	11.300442	112
142	19930	11.400442	113
142	20104	11.500442	114
142	20278	11.600442	115
142	20452	11.700442	116
142	20626	11.800442	117
142	20800	11.900442	118
142	20974	12.000442	119
142	21148	12.100442	120
142	21322	12.200442	121
142	21496	12.300442	122
142	21670	12.400442	123
142	21844	12.500442	124
142	22018	12.600442	125
142	22192	12.700442	126
142	22366	12.800442	127
142	22540	12.900442	128
142	22714	13.000442	129
142	22888	13.100442	130
142	23062	13.200442	131
142	23236	13.300442	132
142	23410	13.400442	133
142	23584	13.500442	134
142	23758	13.600442	135
142	23932	13.700442	136
142	24106	13.800442	137
142	24280	13.900442	138
142	24454	14.000442	139
142	24628	14.100442	140
142	24802	14.200442	141
142	24976	14.300442	142
142	25150	14.400442	143
142	25324	14.500442	144
142	25498	14.600442	145
142	25672	14.700442	146
142	25846	14.800442	147
142	26020	14.900442	148
142	26194	15.000442	149
142	26368	15.100442	150
142	26542	15.200442	151
142	26716	15.300442	152
142	26890	15.400442	153
142	27064	15.500442	154
142	27238	15.600442	155
142	27412	15.700442	156
142	27586	15.800442	157
142	27760	15.900442	158
142	27934	16.000442	159
142	28108	16.100442	160
142	28282	16.200442	161
142	28456	16.300442	162
142	28630	16.400442	163
142	28804	16.500442	164
142	28978	16.600442	165
142	29152	16.700442	166
142	29326	16.800442	167
142	29500	16.900442	168
142	29674	17.000442	169
142	29848	17.100442	170
142	30022	17.200442	171
142	30196	17.300442	172
142	30370	17.400442	173
142	30544	17.500442	174
142	30718	17.600442	175
142	30892	17.700442	176
142	31066	17.800442	177
142	31240	17.900442	178
142	31414	18.000442	179
142	31588	18.100442	180
142	31762	18.200442	181
142	31936	18.300442	182
142	32110	18.400442	183
142	32284	18.500442	184
142	32458	18.600442	185
142	32632	18.700442	186
142	32806	18.800442	187
142	32980	18.900442	188
142	33154	19.000442	189
142	33328	19.100442	190
142	33502	19.200442	191
142	33676	19.300442	192
142	33850	19.400442	193
142	34024	19.500442	194
142	34198	19.600442	195
142	34372	19.700442	196
142	34546	19.800442	197
142	34720	19.900442	198
142	34894	20.000442	199
142	35068	20.100442	200
142	35242	20.200442	201
142	35416	20.300442	202
142	35590	20.400442	203
142	35764	20.500442	204
142	35938	20.600442	205
142	36112	20.700442	206
142	36286	20.800442	207
122	36378	20.9	800
122	36378	20.9001922	0
128	36378	20.9	800
128	36378	20.9001922	0
134	36378	20.9	800
134	36378	20.9001922	0
140	36378	20.9	800
140	36378	20.9001922	0

